api/pglib_opf_case200_pserc__api.m
%%%%%%%%%%%%%%%%%%%%%%%%%%%%%%%%%%%%%%%%%%%%%%%%%%%%%%%%%%%%%%%%%%%%%%%%%%%
%%%%                                                                  %%%%%
%%%%    IEEE PES Power Grid Library - Optimal Power Flow - v17.07     %%%%%
%%%%          (https://github.com/power-grid-lib/pglib-opf)           %%%%%
%%%%             Benchmark Group - Active Power Increase              %%%%%
%%%%                         27 - June - 2017                         %%%%%
%%%%                                                                  %%%%%
%%%%%%%%%%%%%%%%%%%%%%%%%%%%%%%%%%%%%%%%%%%%%%%%%%%%%%%%%%%%%%%%%%%%%%%%%%%
function mpc = pglib_opf_case200_pserc__api
mpc.version = '2';
mpc.baseMVA = 100.0;

%% bus data
%	bus_i	type	Pd	Qd	Gs	Bs	area	Vm	Va	baseKV	zone	Vmax	Vmin
mpc.bus = [
	1	 1	 0.00	 0.00	 0.0	 0.0	 1	    1.05539	    3.36547	 115.0	 1	    1.10000	    0.90000;
	2	 1	 12.07	 3.12	 0.0	 0.0	 1	    1.05522	    3.34581	 115.0	 1	    1.10000	    0.90000;
	3	 1	 0.00	 0.00	 0.0	 0.0	 1	    1.06816	   -4.48016	 115.0	 1	    1.10000	    0.90000;
	4	 1	 3.00	 0.77	 0.0	 0.0	 1	    1.06812	   -4.48491	 115.0	 1	    1.10000	    0.90000;
	5	 1	 0.00	 0.00	 0.0	 0.0	 1	    1.08221	    5.74714	 115.0	 1	    1.10000	    0.90000;
	6	 1	 13.78	 3.56	 0.0	 0.0	 1	    1.08201	    5.72585	 115.0	 1	    1.10000	    0.90000;
	7	 1	 0.00	 0.00	 0.0	 0.0	 1	    1.04646	    2.18094	 115.0	 1	    1.10000	    0.90000;
	8	 1	 38.81	 10.03	 0.0	 0.0	 1	    1.04591	    2.11948	 115.0	 1	    1.10000	    0.90000;
	9	 1	 0.00	 0.00	 0.0	 0.0	 1	    1.05063	    2.86295	 115.0	 1	    1.10000	    0.90000;
	10	 1	 69.77	 18.04	 0.0	 0.0	 1	    1.04955	    2.72462	 115.0	 1	    1.10000	    0.90000;
	11	 1	 0.00	 0.00	 0.0	 0.0	 1	    1.09417	   -2.93042	 115.0	 1	    1.10000	    0.90000;
	12	 1	 0.54	 0.14	 0.0	 0.0	 1	    1.09416	   -2.93130	 115.0	 1	    1.10000	    0.90000;
	13	 1	 4.45	 1.15	 0.0	 0.0	 1	    1.09410	   -2.93776	 115.0	 1	    1.10000	    0.90000;
	14	 1	 0.00	 0.00	 0.0	 0.0	 1	    1.09192	   -2.68613	 230.0	 1	    1.10000	    0.90000;
	15	 1	 0.00	 0.00	 0.0	 30.0	 1	    1.09462	   -3.50482	 115.0	 1	    1.10000	    0.90000;
	16	 1	 79.04	 20.44	 0.0	 0.0	 1	    1.09362	   -3.62047	 115.0	 1	    1.10000	    0.90000;
	17	 1	 0.00	 0.00	 0.0	 0.0	 1	    1.04987	   -1.58741	 115.0	 1	    1.10000	    0.90000;
	18	 1	 1.26	 0.33	 0.0	 0.0	 1	    1.04985	   -1.58989	 115.0	 1	    1.10000	    0.90000;
	19	 1	 1.36	 0.35	 0.0	 0.0	 1	    1.04985	   -1.58949	 115.0	 1	    1.10000	    0.90000;
	20	 1	 2.00	 0.52	 0.0	 0.0	 1	    1.04984	   -1.59071	 115.0	 1	    1.10000	    0.90000;
	21	 1	 8.14	 2.10	 0.0	 0.0	 1	    1.04974	   -1.60341	 115.0	 1	    1.10000	    0.90000;
	22	 1	 0.00	 0.00	 0.0	 0.0	 1	    1.09396	   -2.58290	 115.0	 1	    1.10000	    0.90000;
	23	 1	 2.49	 0.64	 0.0	 0.0	 1	    1.09392	   -2.58655	 115.0	 1	    1.10000	    0.90000;
	24	 1	 4.23	 1.09	 0.0	 0.0	 1	    1.09390	   -2.58875	 115.0	 1	    1.10000	    0.90000;
	25	 1	 0.00	 0.00	 0.0	 0.0	 1	    1.08135	    3.35988	 115.0	 1	    1.10000	    0.90000;
	26	 1	 2.35	 0.61	 0.0	 0.0	 1	    1.08132	    3.35653	 115.0	 1	    1.10000	    0.90000;
	27	 1	 0.00	 0.00	 0.0	 0.0	 1	    1.09454	   -2.67203	 115.0	 1	    1.10000	    0.90000;
	28	 1	 4.12	 1.07	 0.0	 0.0	 1	    1.09448	   -2.67954	 115.0	 1	    1.10000	    0.90000;
	29	 1	 0.00	 0.00	 0.0	 0.0	 1	    1.05534	    3.68728	 115.0	 1	    1.10000	    0.90000;
	30	 1	 96.59	 24.97	 0.0	 0.0	 1	    1.05395	    3.54042	 115.0	 1	    1.10000	    0.90000;
	31	 1	 0.00	 0.00	 0.0	 0.0	 1	    1.05091	   -0.81662	 115.0	 1	    1.10000	    0.90000;
	32	 1	 0.77	 0.20	 0.0	 0.0	 1	    1.05090	   -0.81810	 115.0	 1	    1.10000	    0.90000;
	33	 1	 9.72	 2.51	 0.0	 0.0	 1	    1.05078	   -0.83428	 115.0	 1	    1.10000	    0.90000;
	34	 1	 0.00	 0.00	 0.0	 0.0	 1	    1.07686	   -3.51651	 115.0	 1	    1.10000	    0.90000;
	35	 1	 36.67	 9.48	 0.0	 0.0	 1	    1.07634	   -3.58042	 115.0	 1	    1.10000	    0.90000;
	36	 1	 0.00	 0.00	 0.0	 0.0	 1	    1.05187	   -0.39875	 115.0	 1	    1.10000	    0.90000;
	37	 1	 5.39	 1.39	 0.0	 0.0	 1	    1.05180	   -0.40765	 115.0	 1	    1.10000	    0.90000;
	38	 1	 44.99	 11.63	 0.0	 0.0	 1	    1.05120	   -0.47657	 115.0	 1	    1.10000	    0.90000;
	39	 1	 13.07	 3.38	 0.0	 0.0	 1	    1.05291	   -5.05962	 115.0	 1	    1.10000	    0.90000;
	40	 1	 3.62	 0.93	 0.0	 0.0	 1	    1.05286	   -5.06519	 115.0	 1	    1.10000	    0.90000;
	41	 1	 68.21	 17.63	 0.0	 0.0	 1	    1.07543	   -4.81068	 115.0	 1	    1.10000	    0.90000;
	42	 1	 18.75	 4.85	 0.0	 0.0	 1	    1.06330	   -5.29278	 115.0	 1	    1.10000	    0.90000;
	43	 1	 3.41	 0.88	 0.0	 0.0	 1	    1.05164	   -0.03570	 115.0	 1	    1.10000	    0.90000;
	44	 1	 7.33	 1.89	 0.0	 0.0	 1	    1.05876	   -3.81406	 115.0	 1	    1.10000	    0.90000;
	45	 1	 0.00	 0.00	 0.0	 0.0	 1	    1.08730	    1.35500	 230.0	 1	    1.10000	    0.90000;
	46	 1	 9.57	 2.47	 0.0	 0.0	 1	    1.08481	    0.24271	 115.0	 1	    1.10000	    0.90000;
	47	 1	 2.72	 0.71	 0.0	 0.0	 1	    1.09098	   -1.81534	 115.0	 1	    1.10000	    0.90000;
	48	 1	 3.16	 0.82	 0.0	 0.0	 1	    1.08014	    5.69748	 115.0	 1	    1.10000	    0.90000;
	49	 2	 0.00	 0.00	 0.0	 0.0	 1	    1.10000	    5.81864	 13.8	 1	    1.10000	    0.90000;
	50	 2	 0.00	 0.00	 0.0	 0.0	 1	    1.09342	   11.25679	 13.8	 1	    1.10000	    0.90000;
	51	 2	 0.00	 0.00	 0.0	 0.0	 1	    1.10000	   10.97630	 13.8	 1	    1.10000	    0.90000;
	52	 2	 0.00	 0.00	 0.0	 0.0	 1	    1.08380	   10.21145	 13.8	 1	    1.10000	    0.90000;
	53	 2	 0.00	 0.00	 0.0	 0.0	 1	    1.10000	   10.63685	 13.8	 1	    1.10000	    0.90000;
	54	 1	 4.71	 1.22	 0.0	 0.0	 1	    1.08716	   -2.26211	 115.0	 1	    1.10000	    0.90000;
	55	 1	 0.00	 0.00	 0.0	 0.0	 1	    1.08449	    2.02320	 230.0	 1	    1.10000	    0.90000;
	56	 1	 1.97	 0.51	 0.0	 0.0	 1	    1.08325	    1.48780	 115.0	 1	    1.10000	    0.90000;
	57	 1	 4.98	 1.29	 0.0	 0.0	 1	    1.06242	   -5.04622	 115.0	 1	    1.10000	    0.90000;
	58	 1	 6.38	 1.65	 0.0	 0.0	 1	    1.06204	   -1.08671	 115.0	 1	    1.10000	    0.90000;
	59	 1	 7.74	 2.00	 0.0	 0.0	 1	    1.04975	    0.01035	 115.0	 1	    1.10000	    0.90000;
	60	 1	 6.21	 1.60	 0.0	 0.0	 1	    1.06698	    3.63077	 115.0	 1	    1.10000	    0.90000;
	61	 1	 31.02	 8.02	 0.0	 0.0	 1	    1.08121	    0.48872	 115.0	 1	    1.10000	    0.90000;
	62	 1	 37.80	 9.77	 0.0	 0.0	 1	    1.05825	   -6.19490	 115.0	 1	    1.10000	    0.90000;
	63	 1	 14.10	 3.64	 0.0	 0.0	 1	    1.08892	   -2.98237	 115.0	 1	    1.10000	    0.90000;
	64	 1	 0.00	 0.00	 0.0	 0.0	 1	    1.08719	    6.16758	 115.0	 1	    1.10000	    0.90000;
	65	 2	 0.00	 0.00	 0.0	 0.0	 1	    1.10000	   12.25016	 13.8	 1	    1.10000	    0.90000;
	66	 1	 0.00	 0.00	 0.0	 0.0	 1	    1.09516	   -1.29286	 115.0	 1	    1.10000	    0.90000;
	67	 2	 0.00	 0.00	 0.0	 0.0	 1	    1.09868	   -1.26990	 13.8	 1	    1.10000	    0.90000;
	68	 2	 0.00	 0.00	 0.0	 0.0	 1	    1.09516	    7.96162	 13.8	 1	    1.10000	    0.90000;
	69	 2	 0.00	 0.00	 0.0	 0.0	 1	    1.10000	   -1.11492	 13.8	 1	    1.10000	    0.90000;
	70	 2	 0.00	 0.00	 0.0	 0.0	 1	    1.10000	   -0.90371	 13.8	 1	    1.10000	    0.90000;
	71	 2	 0.00	 0.00	 0.0	 0.0	 1	    1.10000	   -1.14102	 13.8	 1	    1.10000	    0.90000;
	72	 2	 0.00	 0.00	 0.0	 0.0	 1	    1.10000	    0.40109	 13.8	 1	    1.10000	    0.90000;
	73	 2	 0.00	 0.00	 0.0	 0.0	 1	    1.10000	    1.27579	 13.8	 1	    1.10000	    0.90000;
	74	 1	 32.53	 8.41	 0.0	 0.0	 1	    1.06827	    3.34840	 115.0	 1	    1.10000	    0.90000;
	75	 1	 5.89	 1.52	 0.0	 0.0	 1	    1.06906	    6.37515	 115.0	 1	    1.10000	    0.90000;
	76	 2	 0.00	 0.00	 0.0	 0.0	 1	    1.06906	   15.95267	 13.8	 1	    1.10000	    0.90000;
	77	 2	 0.00	 0.00	 0.0	 0.0	 1	    1.10000	    6.69951	 13.8	 1	    1.10000	    0.90000;
	78	 2	 0.00	 0.00	 0.0	 0.0	 1	    1.06906	    6.37515	 13.8	 1	    1.10000	    0.90000;
	79	 2	 0.00	 0.00	 0.0	 0.0	 1	    1.06906	    6.37515	 13.8	 1	    1.10000	    0.90000;
	80	 1	 2.62	 0.68	 0.0	 0.0	 1	    1.07930	   -5.12881	 115.0	 1	    1.10000	    0.90000;
	81	 1	 0.00	 0.00	 0.0	 0.0	 1	    1.08103	    0.21401	 230.0	 1	    1.10000	    0.90000;
	82	 1	 13.19	 3.41	 0.0	 0.0	 1	    1.07418	    0.05546	 115.0	 1	    1.10000	    0.90000;
	83	 1	 4.73	 1.22	 0.0	 0.0	 1	    1.05572	    1.90663	 115.0	 1	    1.10000	    0.90000;
	84	 1	 6.13	 1.59	 0.0	 0.0	 1	    1.05475	   -0.30062	 115.0	 1	    1.10000	    0.90000;
	85	 1	 8.53	 2.21	 0.0	 0.0	 1	    1.05045	   -4.11706	 115.0	 1	    1.10000	    0.90000;
	86	 1	 13.48	 3.49	 0.0	 0.0	 1	    1.04834	    2.50293	 115.0	 1	    1.10000	    0.90000;
	87	 1	 0.00	 0.00	 0.0	 0.0	 1	    1.07938	   -3.70438	 230.0	 1	    1.10000	    0.90000;
	88	 1	 87.82	 22.70	 0.0	 0.0	 1	    1.07400	   -5.42601	 115.0	 1	    1.10000	    0.90000;
	89	 1	 94.85	 24.52	 0.0	 0.0	 1	    1.07163	   -2.99801	 115.0	 1	    1.10000	    0.90000;
	90	 2	 0.00	 0.00	 0.0	 0.0	 1	    1.10000	   -2.50576	 13.8	 1	    1.10000	    0.90000;
	91	 2	 0.00	 0.00	 0.0	 0.0	 1	    1.07351	    5.03381	 13.8	 1	    1.10000	    0.90000;
	92	 2	 0.00	 0.00	 0.0	 0.0	 1	    1.07163	   -2.99801	 13.8	 1	    1.10000	    0.90000;
	93	 1	 5.41	 1.40	 0.0	 0.0	 1	    1.09299	   -3.12944	 115.0	 1	    1.10000	    0.90000;
	94	 2	 0.00	 0.00	 0.0	 0.0	 1	    1.09844	   -2.77827	 13.8	 1	    1.10000	    0.90000;
	95	 1	 4.53	 1.17	 0.0	 30.0	 1	    1.07646	   -2.25145	 115.0	 1	    1.10000	    0.90000;
	96	 1	 4.46	 1.15	 0.0	 0.0	 1	    1.08070	   -2.64575	 115.0	 1	    1.10000	    0.90000;
	97	 1	 11.98	 3.10	 0.0	 0.0	 1	    1.05920	    0.84305	 115.0	 1	    1.10000	    0.90000;
	98	 1	 0.00	 0.00	 0.0	 0.0	 1	    1.06722	    6.18352	 230.0	 1	    1.10000	    0.90000;
	99	 1	 19.89	 5.14	 0.0	 0.0	 1	    1.06059	    4.70646	 115.0	 1	    1.10000	    0.90000;
	100	 1	 66.53	 17.20	 0.0	 80.0	 1	    1.08667	   -4.99764	 115.0	 1	    1.10000	    0.90000;
	101	 1	 0.85	 0.22	 0.0	 0.0	 1	    1.04989	    2.56598	 115.0	 1	    1.10000	    0.90000;
	102	 1	 0.00	 0.00	 0.0	 0.0	 1	    1.08619	    2.47722	 230.0	 1	    1.10000	    0.90000;
	103	 1	 0.00	 0.00	 0.0	 0.0	 1	    1.08285	    1.38873	 115.0	 1	    1.10000	    0.90000;
	104	 2	 0.00	 0.00	 0.0	 0.0	 1	    1.10000	    3.08495	 13.8	 1	    1.10000	    0.90000;
	105	 2	 0.00	 0.00	 0.0	 0.0	 1	    1.10000	    9.54448	 13.8	 1	    1.10000	    0.90000;
	106	 1	 3.11	 0.80	 0.0	 0.0	 1	    1.07823	    1.21291	 115.0	 1	    1.10000	    0.90000;
	107	 1	 79.33	 20.51	 0.0	 0.0	 1	    1.05098	   -1.43769	 115.0	 1	    1.10000	    0.90000;
	108	 1	 15.40	 3.98	 0.0	 0.0	 1	    1.06438	    5.32854	 115.0	 1	    1.10000	    0.90000;
	109	 1	 9.11	 2.35	 0.0	 0.0	 1	    1.05310	    0.32429	 115.0	 1	    1.10000	    0.90000;
	110	 1	 17.75	 4.59	 0.0	 0.0	 1	    1.04999	    2.62965	 115.0	 1	    1.10000	    0.90000;
	111	 1	 15.69	 4.05	 0.0	 0.0	 1	    1.07094	   -5.11774	 115.0	 1	    1.10000	    0.90000;
	112	 1	 0.00	 0.00	 0.0	 0.0	 1	    1.08057	    2.57508	 230.0	 1	    1.10000	    0.90000;
	113	 1	 0.00	 0.00	 0.0	 0.0	 1	    1.05819	   -0.39316	 115.0	 1	    1.10000	    0.90000;
	114	 2	 0.00	 0.00	 0.0	 0.0	 1	    1.09051	    6.78476	 13.8	 1	    1.10000	    0.90000;
	115	 2	 0.00	 0.00	 0.0	 0.0	 1	    1.10000	    6.91379	 13.8	 1	    1.10000	    0.90000;
	116	 1	 0.00	 0.00	 0.0	 0.0	 1	    1.06674	    5.60402	 230.0	 1	    1.10000	    0.90000;
	117	 1	 55.72	 14.40	 0.0	 0.0	 1	    1.05629	    2.90409	 115.0	 1	    1.10000	    0.90000;
	118	 1	 6.44	 1.66	 0.0	 0.0	 1	    1.05950	    4.00504	 115.0	 1	    1.10000	    0.90000;
	119	 1	 28.70	 7.42	 0.0	 0.0	 1	    1.04714	    0.62432	 115.0	 1	    1.10000	    0.90000;
	120	 1	 3.17	 0.82	 0.0	 0.0	 1	    1.05002	   -3.11234	 115.0	 1	    1.10000	    0.90000;
	121	 1	 0.00	 0.00	 0.0	 0.0	 1	    1.09260	   -0.77608	 230.0	 1	    1.10000	    0.90000;
	122	 1	 23.31	 6.02	 0.0	 0.0	 1	    1.08479	   -1.25708	 115.0	 1	    1.10000	    0.90000;
	123	 1	 0.00	 0.00	 0.0	 0.0	 1	    1.07781	    7.74622	 230.0	 1	    1.10000	    0.90000;
	124	 1	 0.00	 0.00	 0.0	 0.0	 1	    1.06468	    4.95766	 115.0	 1	    1.10000	    0.90000;
	125	 2	 0.00	 0.00	 0.0	 0.0	 1	    1.10000	   15.74701	 13.8	 1	    1.10000	    0.90000;
	126	 2	 0.00	 0.00	 0.0	 0.0	 1	    1.07781	   13.28726	 13.8	 1	    1.10000	    0.90000;
	127	 2	 0.00	 0.00	 0.0	 0.0	 1	    1.09770	    9.75538	 13.8	 1	    1.10000	    0.90000;
	128	 1	 0.00	 0.00	 0.0	 0.0	 1	    1.07966	    2.46204	 230.0	 1	    1.10000	    0.90000;
	129	 1	 116.59	 30.14	 0.0	 0.0	 1	    1.05774	   -0.86969	 115.0	 1	    1.10000	    0.90000;
	130	 1	 6.64	 1.72	 0.0	 0.0	 1	    1.07425	    1.13078	 115.0	 1	    1.10000	    0.90000;
	131	 1	 49.46	 12.79	 0.0	 0.0	 1	    1.05062	    2.86507	 115.0	 1	    1.10000	    0.90000;
	132	 1	 44.08	 11.39	 0.0	 0.0	 1	    1.04726	    0.49279	 115.0	 1	    1.10000	    0.90000;
	133	 1	 0.00	 0.00	 0.0	 0.0	 1	    1.08089	    7.65045	 230.0	 1	    1.10000	    0.90000;
	134	 1	 0.00	 0.00	 0.0	 0.0	 1	    1.07520	    5.99865	 115.0	 1	    1.10000	    0.90000;
	135	 2	 0.00	 0.00	 0.0	 0.0	 1	    1.10000	   11.90341	 13.8	 1	    1.10000	    0.90000;
	136	 2	 0.00	 0.00	 0.0	 0.0	 1	    1.10000	   11.43661	 13.8	 1	    1.10000	    0.90000;
	137	 1	 2.05	 0.53	 0.0	 0.0	 1	    1.07213	   -4.05647	 115.0	 1	    1.10000	    0.90000;
	138	 1	 3.63	 0.94	 0.0	 0.0	 1	    1.06708	   -0.02802	 115.0	 1	    1.10000	    0.90000;
	139	 1	 11.18	 2.89	 0.0	 0.0	 1	    1.05312	   -0.26854	 115.0	 1	    1.10000	    0.90000;
	140	 1	 13.43	 3.47	 0.0	 0.0	 1	    1.06250	    4.49820	 115.0	 1	    1.10000	    0.90000;
	141	 1	 2.33	 0.60	 0.0	 0.0	 1	    1.04989	    2.65723	 115.0	 1	    1.10000	    0.90000;
	142	 1	 60.92	 15.75	 0.0	 0.0	 1	    1.04821	    2.68645	 115.0	 1	    1.10000	    0.90000;
	143	 1	 47.65	 12.32	 0.0	 0.0	 1	    1.06993	   -5.04858	 115.0	 1	    1.10000	    0.90000;
	144	 1	 14.81	 3.83	 0.0	 0.0	 1	    1.06218	    1.38263	 115.0	 1	    1.10000	    0.90000;
	145	 1	 31.22	 8.07	 0.0	 0.0	 1	    1.06563	   -6.58504	 115.0	 1	    1.10000	    0.90000;
	146	 1	 0.00	 0.00	 0.0	 0.0	 1	    1.05683	    3.01596	 115.0	 1	    1.10000	    0.90000;
	147	 2	 0.00	 0.00	 0.0	 0.0	 1	    1.05729	    9.83847	 13.8	 1	    1.10000	    0.90000;
	148	 1	 52.35	 13.53	 0.0	 0.0	 1	    1.04201	    1.59950	 115.0	 1	    1.10000	    0.90000;
	149	 1	 0.00	 0.00	 0.0	 0.0	 1	    1.08256	   -3.13555	 230.0	 1	    1.10000	    0.90000;
	150	 1	 0.00	 0.00	 0.0	 0.0	 1	    1.07913	   -4.68079	 115.0	 1	    1.10000	    0.90000;
	151	 2	 0.00	 0.00	 0.0	 0.0	 1	    1.08257	    2.98762	 13.8	 1	    1.10000	    0.90000;
	152	 2	 0.00	 0.00	 0.0	 0.0	 1	    1.10000	   -2.36182	 13.8	 1	    1.10000	    0.90000;
	153	 2	 0.00	 0.00	 0.0	 0.0	 1	    1.08256	    5.90304	 13.8	 1	    1.10000	    0.90000;
	154	 2	 0.00	 0.00	 0.0	 0.0	 1	    1.10000	   -2.58380	 13.8	 1	    1.10000	    0.90000;
	155	 2	 0.00	 0.00	 0.0	 0.0	 1	    1.08256	    1.74838	 13.8	 1	    1.10000	    0.90000;
	156	 1	 0.00	 0.00	 0.0	 0.0	 1	    1.07833	    7.62578	 230.0	 1	    1.10000	    0.90000;
	157	 1	 24.12	 6.24	 0.0	 0.0	 1	    1.07394	    6.83150	 115.0	 1	    1.10000	    0.90000;
	158	 1	 15.83	 4.09	 0.0	 0.0	 1	    1.09406	   -2.19897	 115.0	 1	    1.10000	    0.90000;
	159	 1	 2.45	 0.63	 0.0	 0.0	 1	    1.05788	   -5.42208	 115.0	 1	    1.10000	    0.90000;
	160	 1	 0.00	 0.00	 0.0	 0.0	 1	    1.06582	   -5.89904	 115.0	 1	    1.10000	    0.90000;
	161	 2	 0.00	 0.00	 0.0	 0.0	 1	    1.06582	   -5.89904	 13.8	 1	    1.10000	    0.90000;
	162	 1	 2.37	 0.61	 0.0	 0.0	 1	    1.06036	    1.81958	 115.0	 1	    1.10000	    0.90000;
	163	 1	 81.50	 21.07	 0.0	 0.0	 1	    1.07271	   -4.68810	 115.0	 1	    1.10000	    0.90000;
	164	 2	 0.00	 0.00	 0.0	 0.0	 1	    1.07271	   -4.68810	 13.8	 1	    1.10000	    0.90000;
	165	 2	 0.00	 0.00	 0.0	 0.0	 1	    1.07271	   -4.68810	 13.8	 1	    1.10000	    0.90000;
	166	 2	 0.00	 0.00	 0.0	 0.0	 1	    1.07271	   -4.68810	 13.8	 1	    1.10000	    0.90000;
	167	 2	 0.00	 0.00	 0.0	 0.0	 1	    1.07487	   -0.58610	 13.8	 1	    1.10000	    0.90000;
	168	 2	 0.00	 0.00	 0.0	 0.0	 1	    1.07271	   -4.68810	 13.8	 1	    1.10000	    0.90000;
	169	 2	 0.00	 0.00	 0.0	 0.0	 1	    1.07271	   -4.68810	 13.8	 1	    1.10000	    0.90000;
	170	 2	 0.00	 0.00	 0.0	 0.0	 1	    1.07273	    1.96721	 13.8	 1	    1.10000	    0.90000;
	171	 1	 13.77	 3.56	 0.0	 0.0	 1	    1.06524	    0.71470	 115.0	 1	    1.10000	    0.90000;
	172	 1	 9.57	 2.47	 0.0	 0.0	 1	    1.07514	   -1.94657	 115.0	 1	    1.10000	    0.90000;
	173	 1	 15.50	 4.01	 0.0	 0.0	 1	    1.07333	   -5.32332	 115.0	 1	    1.10000	    0.90000;
	174	 1	 4.93	 1.27	 0.0	 0.0	 1	    1.08190	   -4.45355	 115.0	 1	    1.10000	    0.90000;
	175	 1	 13.01	 3.36	 0.0	 0.0	 1	    1.07106	   -5.39535	 115.0	 1	    1.10000	    0.90000;
	176	 1	 33.83	 8.75	 0.0	 0.0	 1	    1.06930	   -6.05081	 115.0	 1	    1.10000	    0.90000;
	177	 1	 17.03	 4.40	 0.0	 0.0	 1	    1.05403	    0.13092	 115.0	 1	    1.10000	    0.90000;
	178	 1	 0.00	 0.00	 0.0	 0.0	 1	    1.08222	   -1.81632	 230.0	 1	    1.10000	    0.90000;
	179	 1	 42.00	 10.86	 0.0	 0.0	 1	    1.07978	   -3.96244	 115.0	 1	    1.10000	    0.90000;
	180	 1	 13.78	 3.56	 0.0	 0.0	 1	    1.07591	   -2.79492	 115.0	 1	    1.10000	    0.90000;
	181	 1	 84.74	 21.91	 0.0	 0.0	 1	    1.06981	   -5.73632	 115.0	 1	    1.10000	    0.90000;
	182	 2	 0.00	 0.00	 0.0	 0.0	 1	    1.10000	   -5.41498	 13.8	 1	    1.10000	    0.90000;
	183	 2	 0.00	 0.00	 0.0	 0.0	 1	    1.08729	   -2.22505	 13.8	 1	    1.10000	    0.90000;
	184	 1	 19.03	 4.92	 0.0	 0.0	 1	    1.08475	   -4.57843	 115.0	 1	    1.10000	    0.90000;
	185	 1	 19.20	 4.96	 0.0	 0.0	 1	    1.06914	   -6.10808	 115.0	 1	    1.10000	    0.90000;
	186	 1	 3.44	 0.89	 0.0	 0.0	 1	    1.05857	    2.26637	 115.0	 1	    1.10000	    0.90000;
	187	 1	 0.00	 0.00	 0.0	 0.0	 1	    1.09427	   -0.30650	 230.0	 1	    1.10000	    0.90000;
	188	 1	 0.00	 0.00	 0.0	 0.0	 1	    1.08439	   -2.17686	 115.0	 1	    1.10000	    0.90000;
	189	 3	 0.00	 0.00	 0.0	 0.0	 1	    1.10000	    0.00000	 13.8	 1	    1.10000	    0.90000;
	190	 1	 29.12	 7.53	 0.0	 0.0	 1	    1.06335	    1.64644	 115.0	 1	    1.10000	    0.90000;
	191	 1	 12.87	 3.32	 0.0	 0.0	 1	    1.08410	   -3.48565	 115.0	 1	    1.10000	    0.90000;
	192	 1	 79.61	 20.58	 0.0	 0.0	 1	    1.04980	   -1.42010	 115.0	 1	    1.10000	    0.90000;
	193	 1	 35.95	 9.29	 0.0	 0.0	 1	    1.05165	    2.93867	 115.0	 1	    1.10000	    0.90000;
	194	 1	 66.88	 17.29	 0.0	 50.0	 1	    1.07729	   -5.53084	 115.0	 1	    1.10000	    0.90000;
	195	 1	 0.00	 0.00	 0.0	 0.0	 1	    1.07094	    0.15052	 115.0	 1	    1.10000	    0.90000;
	196	 2	 0.00	 0.00	 0.0	 0.0	 1	    1.07094	    0.15052	 13.8	 1	    1.10000	    0.90000;
	197	 2	 0.00	 0.00	 0.0	 0.0	 1	    1.07094	    0.15052	 13.8	 1	    1.10000	    0.90000;
	198	 1	 8.79	 2.27	 0.0	 0.0	 1	    1.06026	    4.18088	 115.0	 1	    1.10000	    0.90000;
	199	 1	 7.38	 1.91	 0.0	 0.0	 1	    1.07686	    0.02675	 115.0	 1	    1.10000	    0.90000;
	200	 1	 16.50	 4.27	 0.0	 0.0	 1	    1.05579	   -1.66814	 115.0	 1	    1.10000	    0.90000;
];

%% generator data
%	bus	Pg	Qg	Qmax	Qmin	Vg	mBase	status	Pmax	Pmin	Pc1	Pc2	Qc1min	Qc1max	Qc2min	Qc2max	ramp_agc	ramp_10	ramp_30	ramp_q	apf
mpc.gen = [
	49	 0.68	 4.071	 7.0	 -7.0	 1.1	 5.44	 1	 14	 0.68	 0.0	 0.0	 0.0	 0.0	 0.0	 0.0	 0.0	 0.0	 0.0	 0.0	 0.0; % PEL
	50	 28.494	 3.435	 23.0	 -23.0	 1.09342	 5.44	 1	 45	 0.68	 0.0	 0.0	 0.0	 0.0	 0.0	 0.0	 0.0	 0.0	 0.0	 0.0	 0.0; % NG
	51	 18.0	 3.589	 9.0	 -9.0	 1.1	 5.44	 1	 18	 0.68	 0.0	 0.0	 0.0	 0.0	 0.0	 0.0	 0.0	 0.0	 0.0	 0.0	 0.0; % NG
	52	 24.292	 0.611	 14.0	 -14.0	 1.0838	 5.44	 1	 28	 0.68	 0.0	 0.0	 0.0	 0.0	 0.0	 0.0	 0.0	 0.0	 0.0	 0.0	 0.0; % NG
	53	 17.887	 3.895	 37.0	 -37.0	 1.1	 10.88	 1	 74	 1.36	 0.0	 0.0	 0.0	 0.0	 0.0	 0.0	 0.0	 0.0	 0.0	 0.0	 0.0; % NG
	65	 125.0	 18.932	 63.0	 -63.0	 1.1	 180.48	 1	 125	 22.56	 0.0	 0.0	 0.0	 0.0	 0.0	 0.0	 0.0	 0.0	 0.0	 0.0	 0.0; % NG
	67	 0.705	 2.57	 9.0	 -9.0	 1.09868	 5.64	 1	 17	 0.705	 0.0	 0.0	 0.0	 0.0	 0.0	 0.0	 0.0	 0.0	 0.0	 0.0	 0.0; % PEL
	68	 72.891	 3.996	 59.0	 -59.0	 1.09516	 33.5	 1	 117	 4.19	 0.0	 0.0	 0.0	 0.0	 0.0	 0.0	 0.0	 0.0	 0.0	 0.0	 0.0; % NG
	69	 4.19	 5.418	 44.0	 -44.0	 1.1	 33.5	 1	 87	 4.19	 0.0	 0.0	 0.0	 0.0	 0.0	 0.0	 0.0	 0.0	 0.0	 0.0	 0.0; % PEL
	70	 4.19	 2.539	 20.0	 -20.0	 1.1	 33.5	 1	 40	 4.19	 0.0	 0.0	 0.0	 0.0	 0.0	 0.0	 0.0	 0.0	 0.0	 0.0	 0.0; % PEL
	71	 4.19	 6.355	 45.0	 -45.0	 1.1	 33.5	 1	 90	 4.19	 0.0	 0.0	 0.0	 0.0	 0.0	 0.0	 0.0	 0.0	 0.0	 0.0	 0.0; % PEL
	72	 48.0	 5.575	 24.0	 -24.0	 1.1	 33.5	 1	 48	 4.19	 0.0	 0.0	 0.0	 0.0	 0.0	 0.0	 0.0	 0.0	 0.0	 0.0	 0.0; % NG
	73	 37.0	 2.723	 19.0	 -19.0	 1.1	 33.5	 1	 37	 4.19	 0.0	 0.0	 0.0	 0.0	 0.0	 0.0	 0.0	 0.0	 0.0	 0.0	 0.0; % NG
	76	 24.285	 0.84	 24.0	 -24.0	 1.06906	 4.8	 1	 47	 0.6	 0.0	 0.0	 0.0	 0.0	 0.0	 0.0	 0.0	 0.0	 0.0	 0.0	 0.0; % NG
	77	 0.36	 1.54	 2.0	 -2.0	 1.1	 2.88	 1	 4	 0.36	 0.0	 0.0	 0.0	 0.0	 0.0	 0.0	 0.0	 0.0	 0.0	 0.0	 0.0; % PEL
	78	 2988.47	 134.905	 1621.0	 -1621.0	 1.06906	 21.6	 0	 3241	 2.7	 0.0	 0.0	 0.0	 0.0	 0.0	 0.0	 0.0	 0.0	 0.0	 0.0	 0.0; % COW
	79	 4113.0	 45.108	 2388.0	 -2388.0	 1.06906	 21.6	 0	 4775	 2.7	 0.0	 0.0	 0.0	 0.0	 0.0	 0.0	 0.0	 0.0	 0.0	 0.0	 0.0; % PEL
	90	 0.48	 1.358	 5.0	 -5.0	 1.1	 3.84	 1	 9	 0.48	 0.0	 0.0	 0.0	 0.0	 0.0	 0.0	 0.0	 0.0	 0.0	 0.0	 0.0; % PEL
	91	 31.982	 1.08	 19.0	 -19.0	 1.07351	 6.0	 1	 37	 0.75	 0.0	 0.0	 0.0	 0.0	 0.0	 0.0	 0.0	 0.0	 0.0	 0.0	 0.0; % NG
	92	 699.0	 58.724	 406.0	 -406.0	 1.07163	 7.56	 0	 811	 0.945	 0.0	 0.0	 0.0	 0.0	 0.0	 0.0	 0.0	 0.0	 0.0	 0.0	 0.0; % PEL
	94	 2.7	 2.04	 61.0	 -61.0	 1.09844	 21.6	 1	 122	 2.7	 0.0	 0.0	 0.0	 0.0	 0.0	 0.0	 0.0	 0.0	 0.0	 0.0	 0.0; % PEL
	104	 14.85	 17.038	 77.0	 -77.0	 1.1	 118.8	 1	 154	 14.85	 0.0	 0.0	 0.0	 0.0	 0.0	 0.0	 0.0	 0.0	 0.0	 0.0	 0.0; % PEL
	105	 248.0	 36.802	 124.0	 -124.0	 1.1	 237.6	 1	 248	 29.7	 0.0	 0.0	 0.0	 0.0	 0.0	 0.0	 0.0	 0.0	 0.0	 0.0	 0.0; % NG
	114	 19.995	 0.465	 11.0	 -11.0	 1.09051	 2.04	 1	 22	 0.255	 0.0	 0.0	 0.0	 0.0	 0.0	 0.0	 0.0	 0.0	 0.0	 0.0	 0.0; % NG
	115	 144.0	 36.538	 72.0	 -72.0	 1.1	 180.0	 1	 144	 22.5	 0.0	 0.0	 0.0	 0.0	 0.0	 0.0	 0.0	 0.0	 0.0	 0.0	 0.0; % NG
	125	 159.0	 27.567	 80.0	 -80.0	 1.1	 156.06	 1	 159	 19.51	 0.0	 0.0	 0.0	 0.0	 0.0	 0.0	 0.0	 0.0	 0.0	 0.0	 0.0; % NG
	126	 169.943	 4.411	 103.0	 -103.0	 1.07781	 156.06	 1	 206	 19.51	 0.0	 0.0	 0.0	 0.0	 0.0	 0.0	 0.0	 0.0	 0.0	 0.0	 0.0; % NG
	127	 133.0	 67.0	 67.0	 -69.6	 1.0977	 156.06	 1	 133	 19.51	 0.0	 0.0	 0.0	 0.0	 0.0	 0.0	 0.0	 0.0	 0.0	 0.0	 0.0; % NG
	135	 264.0	 69.115	 208.02	 -132.0	 1.1	 535.68	 1	 264	 66.96	 0.0	 0.0	 0.0	 0.0	 0.0	 0.0	 0.0	 0.0	 0.0	 0.0	 0.0; % NG
	136	 287.0	 81.462	 208.02	 -144.0	 1.1	 535.68	 1	 287	 66.96	 0.0	 0.0	 0.0	 0.0	 0.0	 0.0	 0.0	 0.0	 0.0	 0.0	 0.0; % NG
	147	 130.502	 5.05	 206.0	 -206.0	 1.05729	 120.6	 1	 411	 15.075	 0.0	 0.0	 0.0	 0.0	 0.0	 0.0	 0.0	 0.0	 0.0	 0.0	 0.0; % COW
	151	 19.997	 0.346	 22.0	 -22.0	 1.08257	 6.48	 1	 43	 0.81	 0.0	 0.0	 0.0	 0.0	 0.0	 0.0	 0.0	 0.0	 0.0	 0.0	 0.0; % NG
	152	 11.585	 13.413	 81.0	 -81.0	 1.1	 92.67	 1	 161	 11.585	 0.0	 0.0	 0.0	 0.0	 0.0	 0.0	 0.0	 0.0	 0.0	 0.0	 0.0; % PEL
	153	 99.879	 4.913	 127.0	 -127.0	 1.08256	 92.67	 1	 254	 11.585	 0.0	 0.0	 0.0	 0.0	 0.0	 0.0	 0.0	 0.0	 0.0	 0.0	 0.0; % NG
	154	 11.585	 18.411	 45.0	 -45.0	 1.1	 92.67	 1	 90	 11.585	 0.0	 0.0	 0.0	 0.0	 0.0	 0.0	 0.0	 0.0	 0.0	 0.0	 0.0; % PEL
	155	 99.984	 1.768	 85.0	 -85.0	 1.08256	 92.67	 1	 169	 11.585	 0.0	 0.0	 0.0	 0.0	 0.0	 0.0	 0.0	 0.0	 0.0	 0.0	 0.0; % COW
	161	 2232.0	 71.678	 1261.0	 -1261.0	 1.06582	 166.32	 0	 2521	 20.79	 0.0	 0.0	 0.0	 0.0	 0.0	 0.0	 0.0	 0.0	 0.0	 0.0	 0.0; % NG
	164	 2692.0	 716.456	 1521.0	 -1521.0	 1.07271	 14.4	 0	 3041	 1.8	 0.0	 0.0	 0.0	 0.0	 0.0	 0.0	 0.0	 0.0	 0.0	 0.0	 0.0; % NG
	165	 318.0	 15.391	 185.0	 -185.0	 1.07271	 31.2	 0	 369	 3.9	 0.0	 0.0	 0.0	 0.0	 0.0	 0.0	 0.0	 0.0	 0.0	 0.0	 0.0; % PEL
	166	 1900.0	 179.845	 1073.0	 -1073.0	 1.07271	 11.28	 0	 2146	 1.41	 0.0	 0.0	 0.0	 0.0	 0.0	 0.0	 0.0	 0.0	 0.0	 0.0	 0.0; % NG
	167	 41.998	 0.442	 34.0	 -34.0	 1.07487	 11.28	 1	 68	 1.41	 0.0	 0.0	 0.0	 0.0	 0.0	 0.0	 0.0	 0.0	 0.0	 0.0	 0.0; % NG
	168	 -365.801	 29.029	 79.0	 -79.0	 1.07271	 11.28	 0	 157	 1.41	 0.0	 0.0	 0.0	 0.0	 0.0	 0.0	 0.0	 0.0	 0.0	 0.0	 0.0; % NG
	169	 0.0	 42.0	 50.4	 -50.4	 1.07271	 11.28	 0	 34	 1.41	 0.0	 0.0	 0.0	 0.0	 0.0	 0.0	 0.0	 0.0	 0.0	 0.0	 0.0; % PEL
	170	 35.596	 0.52	 43.0	 -43.0	 1.07273	 11.28	 1	 86	 1.41	 0.0	 0.0	 0.0	 0.0	 0.0	 0.0	 0.0	 0.0	 0.0	 0.0	 0.0; % NG
	182	 2.625	 11.063	 32.0	 -32.0	 1.1	 21.0	 1	 63	 2.625	 0.0	 0.0	 0.0	 0.0	 0.0	 0.0	 0.0	 0.0	 0.0	 0.0	 0.0; % PEL
	183	 63.0	 16.0	 34.8	 -34.8	 1.08729	 31.92	 1	 63	 3.99	 0.0	 0.0	 0.0	 0.0	 0.0	 0.0	 0.0	 0.0	 0.0	 0.0	 0.0; % NG
	189	 85.375	 77.646	 260.0	 -260.0	 1.1	 682.98	 1	 520	 85.375	 0.0	 0.0	 0.0	 0.0	 0.0	 0.0	 0.0	 0.0	 0.0	 0.0	 0.0; % PEL
	196	 2628.0	 531.748	 1484.0	 -1484.0	 1.07094	 81.0	 0	 2968	 10.125	 0.0	 0.0	 0.0	 0.0	 0.0	 0.0	 0.0	 0.0	 0.0	 0.0	 0.0; % NG
	197	 707.0	 121.39	 399.0	 -399.0	 1.07094	 81.0	 0	 798	 10.125	 0.0	 0.0	 0.0	 0.0	 0.0	 0.0	 0.0	 0.0	 0.0	 0.0	 0.0; % NG
];

%% generator cost data
%	2	startup	shutdown	n	c(n-1)	...	c0
mpc.gencost = [
	2	 0.0	 0.0	 3	   0.000000	   7.655388	   0.000000; % PEL
	2	 0.0	 0.0	 3	   0.000000	   1.291168	   0.000000; % NG
	2	 0.0	 0.0	 3	   0.000000	   1.180470	   0.000000; % NG
	2	 0.0	 0.0	 3	   0.000000	   0.984820	   0.000000; % NG
	2	 0.0	 0.0	 3	   0.000000	   1.367036	   0.000000; % NG
	2	 0.0	 0.0	 3	   0.000000	   0.657236	   0.000000; % NG
	2	 0.0	 0.0	 3	   0.000000	   6.972329	   0.000000; % PEL
	2	 0.0	 0.0	 3	   0.000000	   0.816652	   0.000000; % NG
	2	 0.0	 0.0	 3	   0.000000	   6.680928	   0.000000; % PEL
	2	 0.0	 0.0	 3	   0.000000	   6.673443	   0.000000; % PEL
	2	 0.0	 0.0	 3	   0.000000	   7.280628	   0.000000; % PEL
	2	 0.0	 0.0	 3	   0.000000	   1.232325	   0.000000; % NG
	2	 0.0	 0.0	 3	   0.000000	   0.983282	   0.000000; % NG
	2	 0.0	 0.0	 3	   0.000000	   0.712963	   0.000000; % NG
	2	 0.0	 0.0	 3	   0.000000	   6.999182	   0.000000; % PEL
	2	 0.0	 0.0	 3	   0.000000	   0.856210	   0.000000; % COW
	2	 0.0	 0.0	 3	   0.000000	   7.117781	   0.000000; % PEL
	2	 0.0	 0.0	 3	   0.000000	   7.294991	   0.000000; % PEL
	2	 0.0	 0.0	 3	   0.000000	   1.138054	   0.000000; % NG
	2	 0.0	 0.0	 3	   0.000000	   6.825582	   0.000000; % PEL
	2	 0.0	 0.0	 3	   0.000000	   7.285965	   0.000000; % PEL
	2	 0.0	 0.0	 3	   0.000000	   6.811111	   0.000000; % PEL
	2	 0.0	 0.0	 3	   0.000000	   1.100243	   0.000000; % NG
	2	 0.0	 0.0	 3	   0.000000	   1.067336	   0.000000; % NG
	2	 0.0	 0.0	 3	   0.000000	   0.983834	   0.000000; % NG
	2	 0.0	 0.0	 3	   0.000000	   0.970405	   0.000000; % NG
	2	 0.0	 0.0	 3	   0.000000	   0.594265	   0.000000; % NG
	2	 0.0	 0.0	 3	   0.000000	   0.735311	   0.000000; % NG
	2	 0.0	 0.0	 3	   0.000000	   1.131941	   0.000000; % NG
	2	 0.0	 0.0	 3	   0.000000	   0.836211	   0.000000; % NG
	2	 0.0	 0.0	 3	   0.000000	   0.844457	   0.000000; % COW
	2	 0.0	 0.0	 3	   0.000000	   1.160989	   0.000000; % NG
	2	 0.0	 0.0	 3	   0.000000	   6.930812	   0.000000; % PEL
	2	 0.0	 0.0	 3	   0.000000	   1.246461	   0.000000; % NG
	2	 0.0	 0.0	 3	   0.000000	   7.057646	   0.000000; % PEL
	2	 0.0	 0.0	 3	   0.000000	   0.922904	   0.000000; % COW
	2	 0.0	 0.0	 3	   0.000000	   1.048601	   0.000000; % NG
	2	 0.0	 0.0	 3	   0.000000	   1.032337	   0.000000; % NG
	2	 0.0	 0.0	 3	   0.000000	   6.913205	   0.000000; % PEL
	2	 0.0	 0.0	 3	   0.000000	   0.961660	   0.000000; % NG
	2	 0.0	 0.0	 3	   0.000000	   0.714534	   0.000000; % NG
	2	 0.0	 0.0	 3	   0.000000	   1.304782	   0.000000; % NG
	2	 0.0	 0.0	 3	   0.000000	   7.195024	   0.000000; % PEL
	2	 0.0	 0.0	 3	   0.000000	   0.838281	   0.000000; % NG
	2	 0.0	 0.0	 3	   0.000000	   6.956464	   0.000000; % PEL
	2	 0.0	 0.0	 3	   0.000000	   1.123803	   0.000000; % NG
	2	 0.0	 0.0	 3	   0.000000	   7.129206	   0.000000; % PEL
	2	 0.0	 0.0	 3	   0.000000	   0.876957	   0.000000; % NG
	2	 0.0	 0.0	 3	   0.000000	   1.217626	   0.000000; % NG
];

%% branch data
%	fbus	tbus	r	x	b	rateA	rateB	rateC	ratio	angle	status	angmin	angmax
mpc.branch = [
	2	 1	 0.000673	 0.003339	 0.0	 100.0	 0.0	 0.0	 0.0	 0.0	 1	 -30.0	 30.0;
	1	 119	 0.018542	 0.119758	 0.02285	 221.1	 0.0	 0.0	 0.0	 0.0	 1	 -30.0	 30.0;
	124	 1	 0.005615	 0.036268	 0.00692	 221.1	 0.0	 0.0	 0.0	 0.0	 1	 -30.0	 30.0;
	193	 1	 0.004258	 0.027501	 0.00525	 221.1	 0.0	 0.0	 0.0	 0.0	 1	 -30.0	 30.0;
	4	 3	 0.000573	 0.003303	 0.0	 100.0	 0.0	 0.0	 0.0	 0.0	 1	 -30.0	 30.0;
	57	 3	 0.008505	 0.058098	 0.00988	 221.1	 0.0	 0.0	 0.0	 0.0	 1	 -30.0	 30.0;
	3	 137	 0.005889	 0.038035	 0.00726	 221.1	 0.0	 0.0	 0.0	 0.0	 1	 -30.0	 30.0;
	6	 5	 0.000694	 0.003337	 0.0	 100.0	 0.0	 0.0	 0.0	 0.0	 1	 -30.0	 30.0;
	48	 5	 0.006246	 0.043513	 0.00711	 221.1	 0.0	 0.0	 0.0	 0.0	 1	 -30.0	 30.0;
	5	 64	 0.007877	 0.054875	 0.00897	 221.1	 0.0	 0.0	 0.0	 0.0	 1	 -30.0	 30.0;
	8	 7	 0.000634	 0.003189	 0.0	 100.0	 0.0	 0.0	 0.0	 0.0	 1	 -30.0	 30.0;
	7	 86	 0.003756	 0.024259	 0.00463	 221.1	 0.0	 0.0	 0.0	 0.0	 1	 -30.0	 30.0;
	7	 101	 0.003597	 0.023232	 0.00443	 221.1	 0.0	 0.0	 0.0	 0.0	 1	 -30.0	 30.0;
	7	 148	 0.008667	 0.05598	 0.01068	 221.1	 0.0	 0.0	 0.0	 0.0	 1	 -30.0	 30.0;
	10	 9	 0.000585	 0.003967	 0.0	 100.0	 0.0	 0.0	 0.0	 0.0	 1	 -30.0	 30.0;
	9	 124	 0.008069	 0.055123	 0.00938	 221.1	 0.0	 0.0	 0.0	 0.0	 1	 -30.0	 30.0;
	131	 9	 0.004139	 0.026732	 0.0051	 221.1	 0.0	 0.0	 0.0	 0.0	 1	 -30.0	 30.0;
	9	 141	 0.004446	 0.03097	 0.00506	 221.1	 0.0	 0.0	 0.0	 0.0	 1	 -30.0	 30.0;
	9	 193	 0.003695	 0.025244	 0.00429	 221.1	 0.0	 0.0	 0.0	 0.0	 1	 -30.0	 30.0;
	12	 11	 0.000534	 0.003533	 0.0	 100.0	 0.0	 0.0	 0.0	 0.0	 1	 -30.0	 30.0;
	13	 11	 0.000619	 0.003606	 0.0	 100.0	 0.0	 0.0	 0.0	 0.0	 1	 -30.0	 30.0;
	11	 15	 0.010408	 0.06722	 0.01282	 221.1	 0.0	 0.0	 0.0	 0.0	 1	 -30.0	 30.0;
	11	 93	 0.018394	 0.128141	 0.02095	 221.1	 0.0	 0.0	 0.0	 0.0	 1	 -30.0	 30.0;
	158	 11	 0.008519	 0.058199	 0.0099	 221.1	 0.0	 0.0	 0.0	 0.0	 1	 -30.0	 30.0;
	15	 14	 0.000637	 0.027526	 0.0	 300.0	 0.0	 0.0	 1.0	 0.0	 1	 -30.0	 30.0;
	14	 121	 0.007013	 0.050098	 0.09134	 402.36	 0.0	 0.0	 0.0	 0.0	 1	 -30.0	 30.0;
	14	 149	 0.009133	 0.065244	 0.11895	 402.36	 0.0	 0.0	 0.0	 0.0	 1	 -30.0	 30.0;
	16	 15	 0.000553	 0.0032	 0.0	 100.0	 0.0	 0.0	 0.0	 0.0	 1	 -30.0	 30.0;
	18	 17	 0.000503	 0.003926	 0.0	 100.0	 0.0	 0.0	 0.0	 0.0	 1	 -30.0	 30.0;
	19	 17	 0.000514	 0.003079	 0.0	 100.0	 0.0	 0.0	 0.0	 0.0	 1	 -30.0	 30.0;
	20	 17	 0.000623	 0.003339	 0.0	 100.0	 0.0	 0.0	 0.0	 0.0	 1	 -30.0	 30.0;
	21	 17	 0.00062	 0.00394	 0.0	 100.0	 0.0	 0.0	 0.0	 0.0	 1	 -30.0	 30.0;
	109	 17	 0.009789	 0.068198	 0.01115	 221.1	 0.0	 0.0	 0.0	 0.0	 1	 -30.0	 30.0;
	17	 120	 0.010316	 0.070473	 0.01199	 221.1	 0.0	 0.0	 0.0	 0.0	 1	 -30.0	 30.0;
	23	 22	 0.000616	 0.003222	 0.0	 100.0	 0.0	 0.0	 0.0	 0.0	 1	 -30.0	 30.0;
	24	 22	 0.000687	 0.003067	 0.0	 100.0	 0.0	 0.0	 0.0	 0.0	 1	 -30.0	 30.0;
	22	 27	 0.011379	 0.073494	 0.01402	 221.1	 0.0	 0.0	 0.0	 0.0	 1	 -30.0	 30.0;
	158	 22	 0.012701	 0.086769	 0.01476	 221.1	 0.0	 0.0	 0.0	 0.0	 1	 -30.0	 30.0;
	26	 25	 0.00061	 0.003071	 0.0	 100.0	 0.0	 0.0	 0.0	 0.0	 1	 -30.0	 30.0;
	25	 64	 0.007643	 0.053244	 0.0087	 221.1	 0.0	 0.0	 0.0	 0.0	 1	 -30.0	 30.0;
	199	 25	 0.009909	 0.064003	 0.01221	 221.1	 0.0	 0.0	 0.0	 0.0	 1	 -30.0	 30.0;
	28	 27	 0.000587	 0.003964	 0.0	 100.0	 0.0	 0.0	 0.0	 0.0	 1	 -30.0	 30.0;
	27	 93	 0.025172	 0.175362	 0.02867	 221.1	 0.0	 0.0	 0.0	 0.0	 1	 -30.0	 30.0;
	27	 158	 0.020429	 0.131945	 0.02517	 221.1	 0.0	 0.0	 0.0	 0.0	 1	 -30.0	 30.0;
	30	 29	 0.000694	 0.003131	 0.0	 100.0	 0.0	 0.0	 0.0	 0.0	 1	 -30.0	 30.0;
	124	 29	 0.005561	 0.038742	 0.00633	 221.1	 0.0	 0.0	 0.0	 0.0	 1	 -30.0	 30.0;
	29	 140	 0.007895	 0.055004	 0.00899	 221.1	 0.0	 0.0	 0.0	 0.0	 1	 -30.0	 30.0;
	32	 31	 0.000667	 0.003884	 0.0	 100.0	 0.0	 0.0	 0.0	 0.0	 1	 -30.0	 30.0;
	33	 31	 0.000528	 0.003639	 0.0	 100.0	 0.0	 0.0	 0.0	 0.0	 1	 -30.0	 30.0;
	177	 31	 0.008406	 0.05856	 0.00957	 221.1	 0.0	 0.0	 0.0	 0.0	 1	 -30.0	 30.0;
	192	 31	 0.008088	 0.05525	 0.0094	 221.1	 0.0	 0.0	 0.0	 0.0	 1	 -30.0	 30.0;
	35	 34	 0.000575	 0.003674	 0.0	 100.0	 0.0	 0.0	 0.0	 0.0	 1	 -30.0	 30.0;
	34	 54	 0.006268	 0.042819	 0.00729	 221.1	 0.0	 0.0	 0.0	 0.0	 1	 -30.0	 30.0;
	34	 137	 0.006911	 0.044639	 0.00852	 221.1	 0.0	 0.0	 0.0	 0.0	 1	 -30.0	 30.0;
	37	 36	 0.000552	 0.003328	 0.0	 100.0	 0.0	 0.0	 0.0	 0.0	 1	 -30.0	 30.0;
	38	 36	 0.00067	 0.003511	 0.0	 100.0	 0.0	 0.0	 0.0	 0.0	 1	 -30.0	 30.0;
	58	 36	 0.010889	 0.07439	 0.01266	 221.1	 0.0	 0.0	 0.0	 0.0	 1	 -30.0	 30.0;
	83	 36	 0.009615	 0.066986	 0.01095	 221.1	 0.0	 0.0	 0.0	 0.0	 1	 -30.0	 30.0;
	40	 39	 0.000505	 0.003103	 0.0	 100.0	 0.0	 0.0	 0.0	 0.0	 1	 -30.0	 30.0;
	39	 85	 0.008702	 0.060625	 0.00991	 221.1	 0.0	 0.0	 0.0	 0.0	 1	 -30.0	 30.0;
	159	 39	 0.007332	 0.05108	 0.00835	 221.1	 0.0	 0.0	 0.0	 0.0	 1	 -30.0	 30.0;
	41	 100	 0.004595	 0.029676	 0.00566	 221.1	 0.0	 0.0	 0.0	 0.0	 1	 -30.0	 30.0;
	41	 163	 0.003165	 0.021623	 0.00368	 221.1	 0.0	 0.0	 0.0	 0.0	 1	 -30.0	 30.0;
	41	 180	 0.009408	 0.060766	 0.01159	 221.1	 0.0	 0.0	 0.0	 0.0	 1	 -30.0	 30.0;
	44	 42	 0.012256	 0.085383	 0.01396	 221.1	 0.0	 0.0	 0.0	 0.0	 1	 -30.0	 30.0;
	181	 42	 0.008008	 0.05579	 0.00912	 221.1	 0.0	 0.0	 0.0	 0.0	 1	 -30.0	 30.0;
	43	 84	 0.007509	 0.051295	 0.00873	 221.1	 0.0	 0.0	 0.0	 0.0	 1	 -30.0	 30.0;
	43	 132	 0.011052	 0.075503	 0.01285	 221.1	 0.0	 0.0	 0.0	 0.0	 1	 -30.0	 30.0;
	44	 200	 0.014813	 0.101195	 0.01722	 221.1	 0.0	 0.0	 0.0	 0.0	 1	 -30.0	 30.0;
	46	 45	 0.000936	 0.049195	 0.0	 160.0	 0.0	 0.0	 1.0	 0.0	 1	 -30.0	 30.0;
	55	 45	 0.002593	 0.018527	 0.03378	 402.36	 0.0	 0.0	 0.0	 0.0	 1	 -30.0	 30.0;
	102	 45	 0.0029	 0.020715	 0.03777	 402.36	 0.0	 0.0	 0.0	 0.0	 1	 -30.0	 30.0;
	45	 187	 0.003474	 0.024821	 0.04525	 402.36	 0.0	 0.0	 0.0	 0.0	 1	 -30.0	 30.0;
	61	 46	 0.006971	 0.048561	 0.00794	 221.1	 0.0	 0.0	 0.0	 0.0	 1	 -30.0	 30.0;
	122	 46	 0.010129	 0.065419	 0.01248	 221.1	 0.0	 0.0	 0.0	 0.0	 1	 -30.0	 30.0;
	47	 54	 0.006678	 0.045623	 0.00776	 221.1	 0.0	 0.0	 0.0	 0.0	 1	 -30.0	 30.0;
	47	 66	 0.007339	 0.047401	 0.00904	 221.1	 0.0	 0.0	 0.0	 0.0	 1	 -30.0	 30.0;
	49	 48	 0.027149	 0.532021	 0.0	 28.9	 0.0	 0.0	 1.0	 0.0	 1	 -30.0	 30.0;
	50	 48	 0.021719	 0.404167	 0.0	 28.7	 0.0	 0.0	 1.0	 0.0	 1	 -30.0	 30.0;
	51	 48	 0.027149	 0.612711	 0.0	 24.3	 0.0	 0.0	 1.0	 0.0	 1	 -30.0	 30.0;
	52	 48	 0.021719	 0.379817	 0.0	 24.3	 0.0	 0.0	 1.0	 0.0	 1	 -30.0	 30.0;
	53	 48	 0.02121	 0.576549	 0.0	 35.3	 0.0	 0.0	 1.0	 0.0	 1	 -30.0	 30.0;
	48	 74	 0.007959	 0.054369	 0.00925	 221.1	 0.0	 0.0	 0.0	 0.0	 1	 -30.0	 30.0;
	54	 66	 0.007051	 0.045544	 0.00869	 221.1	 0.0	 0.0	 0.0	 0.0	 1	 -30.0	 30.0;
	56	 55	 0.005152	 0.124653	 0.0	 160.0	 0.0	 0.0	 1.0	 0.0	 1	 -30.0	 30.0;
	81	 55	 0.005467	 0.039054	 0.0712	 402.36	 0.0	 0.0	 0.0	 0.0	 1	 -30.0	 30.0;
	55	 102	 0.001246	 0.008902	 0.01623	 402.36	 0.0	 0.0	 0.0	 0.0	 1	 -30.0	 30.0;
	55	 112	 0.004166	 0.029763	 0.05426	 402.36	 0.0	 0.0	 0.0	 0.0	 1	 -30.0	 30.0;
	55	 128	 0.003415	 0.024395	 0.04448	 402.36	 0.0	 0.0	 0.0	 0.0	 1	 -30.0	 30.0;
	56	 103	 0.004282	 0.02983	 0.00488	 221.1	 0.0	 0.0	 0.0	 0.0	 1	 -30.0	 30.0;
	57	 159	 0.00752	 0.051369	 0.00874	 221.1	 0.0	 0.0	 0.0	 0.0	 1	 -30.0	 30.0;
	95	 58	 0.009836	 0.063526	 0.01212	 221.1	 0.0	 0.0	 0.0	 0.0	 1	 -30.0	 30.0;
	177	 58	 0.014049	 0.095972	 0.01633	 221.1	 0.0	 0.0	 0.0	 0.0	 1	 -30.0	 30.0;
	59	 119	 0.011209	 0.072397	 0.01381	 221.1	 0.0	 0.0	 0.0	 0.0	 1	 -30.0	 30.0;
	59	 139	 0.009665	 0.062426	 0.01191	 221.1	 0.0	 0.0	 0.0	 0.0	 1	 -30.0	 30.0;
	60	 97	 0.012274	 0.079279	 0.01512	 221.1	 0.0	 0.0	 0.0	 0.0	 1	 -30.0	 30.0;
	134	 60	 0.009007	 0.062749	 0.01026	 221.1	 0.0	 0.0	 0.0	 0.0	 1	 -30.0	 30.0;
	61	 103	 0.006539	 0.045556	 0.00745	 221.1	 0.0	 0.0	 0.0	 0.0	 1	 -30.0	 30.0;
	159	 62	 0.008634	 0.058979	 0.01003	 221.1	 0.0	 0.0	 0.0	 0.0	 1	 -30.0	 30.0;
	160	 62	 0.007628	 0.053144	 0.00869	 221.1	 0.0	 0.0	 0.0	 0.0	 1	 -30.0	 30.0;
	63	 66	 0.011949	 0.083244	 0.01361	 221.1	 0.0	 0.0	 0.0	 0.0	 1	 -30.0	 30.0;
	63	 184	 0.017963	 0.116023	 0.02214	 221.1	 0.0	 0.0	 0.0	 0.0	 1	 -30.0	 30.0;
	65	 64	 0.00128	 0.10157	 0.0	 195.5	 0.0	 0.0	 1.0	 0.0	 1	 -30.0	 30.0;
	67	 66	 0.020951	 0.144786	 0.0	 30.0	 0.0	 0.0	 1.0	 0.0	 1	 -30.0	 30.0;
	68	 66	 0.00689	 0.264997	 0.0	 73.0	 0.0	 0.0	 1.0	 0.0	 1	 -30.0	 30.0;
	69	 66	 0.00441	 0.09499	 0.0	 70.5	 0.0	 0.0	 1.0	 0.0	 1	 -30.0	 30.0;
	70	 66	 0.00689	 0.199449	 0.0	 70.5	 0.0	 0.0	 1.0	 0.0	 1	 -30.0	 30.0;
	71	 66	 0.003528	 0.081544	 0.0	 68.0	 0.0	 0.0	 1.0	 0.0	 1	 -30.0	 30.0;
	72	 66	 0.003528	 0.074599	 0.0	 68.0	 0.0	 0.0	 1.0	 0.0	 1	 -30.0	 30.0;
	73	 66	 0.00689	 0.146423	 0.0	 65.0	 0.0	 0.0	 1.0	 0.0	 1	 -30.0	 30.0;
	66	 158	 0.004993	 0.032251	 0.00615	 221.1	 0.0	 0.0	 0.0	 0.0	 1	 -30.0	 30.0;
	74	 190	 0.008894	 0.06076	 0.01034	 221.1	 0.0	 0.0	 0.0	 0.0	 1	 -30.0	 30.0;
	76	 75	 0.038464	 0.784328	 0.0	 24.3	 0.0	 0.0	 1.0	 0.0	 1	 -30.0	 30.0;
	77	 75	 0.08013	 2.192105	 0.0	 7.4	 0.0	 0.0	 1.0	 0.0	 1	 -30.0	 30.0;
	78	 75	 0.008544	 0.181406	 0.0	 65.0	 0.0	 0.0	 1.0	 0.0	 1	 -30.0	 30.0;
	79	 75	 0.01068	 0.277774	 0.0	 62.1	 0.0	 0.0	 1.0	 0.0	 1	 -30.0	 30.0;
	108	 75	 0.010988	 0.070969	 0.01354	 221.1	 0.0	 0.0	 0.0	 0.0	 1	 -30.0	 30.0;
	75	 157	 0.013487	 0.087112	 0.01662	 221.1	 0.0	 0.0	 0.0	 0.0	 1	 -30.0	 30.0;
	80	 100	 0.021463	 0.149525	 0.02444	 221.1	 0.0	 0.0	 0.0	 0.0	 1	 -30.0	 30.0;
	80	 143	 0.020594	 0.14347	 0.02345	 221.1	 0.0	 0.0	 0.0	 0.0	 1	 -30.0	 30.0;
	82	 81	 0.00097	 0.042371	 0.0	 250.0	 0.0	 0.0	 1.0	 0.0	 1	 -30.0	 30.0;
	81	 178	 0.006598	 0.047137	 0.08594	 402.36	 0.0	 0.0	 0.0	 0.0	 1	 -30.0	 30.0;
	82	 195	 0.003845	 0.026265	 0.00447	 221.1	 0.0	 0.0	 0.0	 0.0	 1	 -30.0	 30.0;
	83	 146	 0.005382	 0.036767	 0.00626	 221.1	 0.0	 0.0	 0.0	 0.0	 1	 -30.0	 30.0;
	83	 186	 0.00792	 0.055174	 0.00902	 221.1	 0.0	 0.0	 0.0	 0.0	 1	 -30.0	 30.0;
	84	 113	 0.006652	 0.04544	 0.00773	 221.1	 0.0	 0.0	 0.0	 0.0	 1	 -30.0	 30.0;
	85	 120	 0.007786	 0.050291	 0.00959	 221.1	 0.0	 0.0	 0.0	 0.0	 1	 -30.0	 30.0;
	86	 101	 0.00512	 0.033072	 0.00631	 221.1	 0.0	 0.0	 0.0	 0.0	 1	 -30.0	 30.0;
	142	 86	 0.003387	 0.023141	 0.00394	 221.1	 0.0	 0.0	 0.0	 0.0	 1	 -30.0	 30.0;
	86	 193	 0.006606	 0.042664	 0.00814	 221.1	 0.0	 0.0	 0.0	 0.0	 1	 -30.0	 30.0;
	88	 87	 0.000832	 0.034189	 0.0	 350.0	 0.0	 0.0	 1.0	 0.0	 1	 -30.0	 30.0;
	149	 87	 0.001621	 0.011579	 0.02111	 402.36	 0.0	 0.0	 0.0	 0.0	 1	 -30.0	 30.0;
	88	 150	 0.00557	 0.035973	 0.00686	 221.1	 0.0	 0.0	 0.0	 0.0	 1	 -30.0	 30.0;
	176	 88	 0.003859	 0.024922	 0.00475	 221.1	 0.0	 0.0	 0.0	 0.0	 1	 -30.0	 30.0;
	88	 194	 0.004258	 0.029088	 0.00495	 221.1	 0.0	 0.0	 0.0	 0.0	 1	 -30.0	 30.0;
	90	 89	 0.0601	 2.279922	 0.0	 8.6	 0.0	 0.0	 1.0	 0.0	 1	 -30.0	 30.0;
	91	 89	 0.024614	 0.503424	 0.0	 32.0	 0.0	 0.0	 1.0	 0.0	 1	 -30.0	 30.0;
	92	 89	 0.019539	 0.36204	 0.0	 35.3	 0.0	 0.0	 1.0	 0.0	 1	 -30.0	 30.0;
	89	 95	 0.008734	 0.056409	 0.01076	 221.1	 0.0	 0.0	 0.0	 0.0	 1	 -30.0	 30.0;
	188	 89	 0.00805	 0.051996	 0.00992	 221.1	 0.0	 0.0	 0.0	 0.0	 1	 -30.0	 30.0;
	94	 93	 0.01068	 0.280602	 0.0	 62.1	 0.0	 0.0	 1.0	 0.0	 1	 -30.0	 30.0;
	93	 191	 0.022088	 0.142662	 0.02722	 221.1	 0.0	 0.0	 0.0	 0.0	 1	 -30.0	 30.0;
	122	 96	 0.01062	 0.073986	 0.01209	 221.1	 0.0	 0.0	 0.0	 0.0	 1	 -30.0	 30.0;
	96	 143	 0.015858	 0.102423	 0.01954	 221.1	 0.0	 0.0	 0.0	 0.0	 1	 -30.0	 30.0;
	96	 188	 0.010903	 0.070421	 0.01343	 221.1	 0.0	 0.0	 0.0	 0.0	 1	 -30.0	 30.0;
	97	 200	 0.01318	 0.085125	 0.01624	 221.1	 0.0	 0.0	 0.0	 0.0	 1	 -30.0	 30.0;
	99	 98	 0.000643	 0.030516	 0.0	 250.0	 0.0	 0.0	 1.0	 0.0	 1	 -30.0	 30.0;
	98	 123	 0.0047	 0.033574	 0.06121	 402.36	 0.0	 0.0	 0.0	 0.0	 1	 -30.0	 30.0;
	99	 142	 0.007605	 0.052982	 0.00866	 221.1	 0.0	 0.0	 0.0	 0.0	 1	 -30.0	 30.0;
	100	 174	 0.010698	 0.074531	 0.01218	 221.1	 0.0	 0.0	 0.0	 0.0	 1	 -30.0	 30.0;
	100	 179	 0.007093	 0.049413	 0.00808	 221.1	 0.0	 0.0	 0.0	 0.0	 1	 -30.0	 30.0;
	100	 184	 0.012745	 0.08879	 0.01451	 221.1	 0.0	 0.0	 0.0	 0.0	 1	 -30.0	 30.0;
	110	 101	 0.00196	 0.012657	 0.00241	 221.1	 0.0	 0.0	 0.0	 0.0	 1	 -30.0	 30.0;
	101	 117	 0.005245	 0.035833	 0.0061	 221.1	 0.0	 0.0	 0.0	 0.0	 1	 -30.0	 30.0;
	101	 141	 0.003144	 0.020305	 0.00387	 221.1	 0.0	 0.0	 0.0	 0.0	 1	 -30.0	 30.0;
	103	 102	 0.001709	 0.054578	 0.0	 250.0	 0.0	 0.0	 1.0	 0.0	 1	 -30.0	 30.0;
	104	 102	 0.0021	 0.087749	 0.0	 130.0	 0.0	 0.0	 1.0	 0.0	 1	 -30.0	 30.0;
	105	 102	 0.00097	 0.059419	 0.0	 260.0	 0.0	 0.0	 1.0	 0.0	 1	 -30.0	 30.0;
	102	 128	 0.0027	 0.019292	 0.03517	 402.36	 0.0	 0.0	 0.0	 0.0	 1	 -30.0	 30.0;
	103	 106	 0.007749	 0.053987	 0.00883	 221.1	 0.0	 0.0	 0.0	 0.0	 1	 -30.0	 30.0;
	130	 106	 0.006991	 0.047761	 0.00813	 221.1	 0.0	 0.0	 0.0	 0.0	 1	 -30.0	 30.0;
	107	 113	 0.006748	 0.046101	 0.00784	 221.1	 0.0	 0.0	 0.0	 0.0	 1	 -30.0	 30.0;
	107	 129	 0.005168	 0.035307	 0.00601	 221.1	 0.0	 0.0	 0.0	 0.0	 1	 -30.0	 30.0;
	192	 107	 0.003939	 0.025441	 0.00485	 221.1	 0.0	 0.0	 0.0	 0.0	 1	 -30.0	 30.0;
	108	 198	 0.024792	 0.160126	 0.03055	 221.1	 0.0	 0.0	 0.0	 0.0	 1	 -30.0	 30.0;
	186	 109	 0.008774	 0.059942	 0.0102	 221.1	 0.0	 0.0	 0.0	 0.0	 1	 -30.0	 30.0;
	110	 193	 0.003444	 0.022243	 0.00424	 221.1	 0.0	 0.0	 0.0	 0.0	 1	 -30.0	 30.0;
	163	 111	 0.005281	 0.034111	 0.00651	 221.1	 0.0	 0.0	 0.0	 0.0	 1	 -30.0	 30.0;
	111	 175	 0.00795	 0.055386	 0.00905	 221.1	 0.0	 0.0	 0.0	 0.0	 1	 -30.0	 30.0;
	113	 112	 0.002077	 0.058615	 0.0	 350.0	 0.0	 0.0	 1.0	 0.0	 1	 -30.0	 30.0;
	114	 112	 0.06	 0.434013	 0.0	 20.0	 0.0	 0.0	 1.0	 0.0	 1	 -30.0	 30.0;
	115	 112	 0.00128	 0.062771	 0.0	 200.0	 0.0	 0.0	 1.0	 0.0	 1	 -30.0	 30.0;
	128	 112	 0.001295	 0.009255	 0.01687	 402.36	 0.0	 0.0	 0.0	 0.0	 1	 -30.0	 30.0;
	113	 192	 0.005418	 0.034995	 0.00668	 221.1	 0.0	 0.0	 0.0	 0.0	 1	 -30.0	 30.0;
	117	 116	 0.000517	 0.034943	 0.0	 300.0	 0.0	 0.0	 1.0	 0.0	 1	 -30.0	 30.0;
	133	 116	 0.00389	 0.027793	 0.05067	 402.36	 0.0	 0.0	 0.0	 0.0	 1	 -30.0	 30.0;
	117	 132	 0.011912	 0.082984	 0.01357	 221.1	 0.0	 0.0	 0.0	 0.0	 1	 -30.0	 30.0;
	117	 162	 0.01617	 0.104442	 0.01993	 221.1	 0.0	 0.0	 0.0	 0.0	 1	 -30.0	 30.0;
	131	 118	 0.00718	 0.046377	 0.00885	 221.1	 0.0	 0.0	 0.0	 0.0	 1	 -30.0	 30.0;
	118	 134	 0.011598	 0.0808	 0.01321	 221.1	 0.0	 0.0	 0.0	 0.0	 1	 -30.0	 30.0;
	118	 198	 0.009487	 0.064809	 0.01103	 221.1	 0.0	 0.0	 0.0	 0.0	 1	 -30.0	 30.0;
	122	 121	 0.000786	 0.063023	 0.0	 200.0	 0.0	 0.0	 1.0	 0.0	 1	 -30.0	 30.0;
	121	 178	 0.008903	 0.063604	 0.11596	 402.36	 0.0	 0.0	 0.0	 0.0	 1	 -30.0	 30.0;
	187	 121	 0.001063	 0.007593	 0.01384	 402.36	 0.0	 0.0	 0.0	 0.0	 1	 -30.0	 30.0;
	124	 123	 0.000329	 0.017481	 0.0	 400.0	 0.0	 0.0	 1.0	 0.0	 1	 -30.0	 30.0;
	125	 123	 0.00448	 0.104562	 0.0	 170.0	 0.0	 0.0	 1.0	 0.0	 1	 -30.0	 30.0;
	126	 123	 0.00148	 0.066043	 0.0	 170.0	 0.0	 0.0	 1.0	 0.0	 1	 -30.0	 30.0;
	127	 123	 0.001	 0.031691	 0.0	 170.0	 0.0	 0.0	 1.0	 0.0	 1	 -30.0	 30.0;
	123	 133	 0.001459	 0.010423	 0.019	 402.36	 0.0	 0.0	 0.0	 0.0	 1	 -30.0	 30.0;
	156	 123	 0.001117	 0.007981	 0.01455	 402.36	 0.0	 0.0	 0.0	 0.0	 1	 -30.0	 30.0;
	124	 193	 0.006577	 0.04582	 0.00749	 221.1	 0.0	 0.0	 0.0	 0.0	 1	 -30.0	 30.0;
	129	 128	 0.000753	 0.044453	 0.0	 250.0	 0.0	 0.0	 1.0	 0.0	 1	 -30.0	 30.0;
	128	 133	 0.009554	 0.068257	 0.12444	 402.36	 0.0	 0.0	 0.0	 0.0	 1	 -30.0	 30.0;
	130	 144	 0.022678	 0.157988	 0.02583	 221.1	 0.0	 0.0	 0.0	 0.0	 1	 -30.0	 30.0;
	134	 133	 0.0002	 0.013328	 0.0	 400.0	 0.0	 0.0	 1.0	 0.0	 1	 -30.0	 30.0;
	135	 133	 0.00043	 0.033512	 0.0	 580.0	 0.0	 0.0	 1.0	 0.0	 1	 -30.0	 30.0;
	136	 133	 0.00043	 0.027478	 0.0	 580.0	 0.0	 0.0	 1.0	 0.0	 1	 -30.0	 30.0;
	156	 133	 0.001958	 0.013985	 0.0255	 402.36	 0.0	 0.0	 0.0	 0.0	 1	 -30.0	 30.0;
	134	 140	 0.010445	 0.071357	 0.01214	 221.1	 0.0	 0.0	 0.0	 0.0	 1	 -30.0	 30.0;
	134	 186	 0.014463	 0.093412	 0.01782	 221.1	 0.0	 0.0	 0.0	 0.0	 1	 -30.0	 30.0;
...
];

% INFO    : === Translation Options ===
% INFO    : Load Model:                  from file ./pglib_opf_case200_pserc.m.api.sol
% INFO    : Gen Active Capacity Model:   stat
% INFO    : Gen Reactive Capacity Model: al50ag
% INFO    : Gen Active Cost Model:       stat
% INFO    : 
% INFO    : === Load Replacement Notes ===
% INFO    : Bus 1	: Pd=0.0, Qd=0.0 -> Pd=0.00, Qd=0.00
% INFO    : Bus 2	: Pd=10.95, Qd=3.12 -> Pd=12.07, Qd=3.12
% INFO    : Bus 3	: Pd=0.0, Qd=0.0 -> Pd=0.00, Qd=0.00
% INFO    : Bus 4	: Pd=2.72, Qd=0.77 -> Pd=3.00, Qd=0.77
% INFO    : Bus 5	: Pd=0.0, Qd=0.0 -> Pd=0.00, Qd=0.00
% INFO    : Bus 6	: Pd=12.5, Qd=3.56 -> Pd=13.78, Qd=3.56
% INFO    : Bus 7	: Pd=0.0, Qd=0.0 -> Pd=0.00, Qd=0.00
% INFO    : Bus 8	: Pd=35.2, Qd=10.03 -> Pd=38.81, Qd=10.03
% INFO    : Bus 9	: Pd=0.0, Qd=0.0 -> Pd=0.00, Qd=0.00
% INFO    : Bus 10	: Pd=63.29, Qd=18.04 -> Pd=69.77, Qd=18.04
% INFO    : Bus 11	: Pd=0.0, Qd=0.0 -> Pd=0.00, Qd=0.00
% INFO    : Bus 12	: Pd=0.49, Qd=0.14 -> Pd=0.54, Qd=0.14
% INFO    : Bus 13	: Pd=4.04, Qd=1.15 -> Pd=4.45, Qd=1.15
% INFO    : Bus 14	: Pd=0.0, Qd=0.0 -> Pd=0.00, Qd=0.00
% INFO    : Bus 15	: Pd=0.0, Qd=0.0 -> Pd=0.00, Qd=0.00
% INFO    : Bus 16	: Pd=71.7, Qd=20.44 -> Pd=79.04, Qd=20.44
% INFO    : Bus 17	: Pd=0.0, Qd=0.0 -> Pd=0.00, Qd=0.00
% INFO    : Bus 18	: Pd=1.14, Qd=0.33 -> Pd=1.26, Qd=0.33
% INFO    : Bus 19	: Pd=1.23, Qd=0.35 -> Pd=1.36, Qd=0.35
% INFO    : Bus 20	: Pd=1.81, Qd=0.52 -> Pd=2.00, Qd=0.52
% INFO    : Bus 21	: Pd=7.38, Qd=2.1 -> Pd=8.14, Qd=2.10
% INFO    : Bus 22	: Pd=0.0, Qd=0.0 -> Pd=0.00, Qd=0.00
% INFO    : Bus 23	: Pd=2.26, Qd=0.64 -> Pd=2.49, Qd=0.64
% INFO    : Bus 24	: Pd=3.84, Qd=1.09 -> Pd=4.23, Qd=1.09
% INFO    : Bus 25	: Pd=0.0, Qd=0.0 -> Pd=0.00, Qd=0.00
% INFO    : Bus 26	: Pd=2.13, Qd=0.61 -> Pd=2.35, Qd=0.61
% INFO    : Bus 27	: Pd=0.0, Qd=0.0 -> Pd=0.00, Qd=0.00
% INFO    : Bus 28	: Pd=3.74, Qd=1.07 -> Pd=4.12, Qd=1.07
% INFO    : Bus 29	: Pd=0.0, Qd=0.0 -> Pd=0.00, Qd=0.00
% INFO    : Bus 30	: Pd=87.62, Qd=24.97 -> Pd=96.59, Qd=24.97
% INFO    : Bus 31	: Pd=0.0, Qd=0.0 -> Pd=0.00, Qd=0.00
% INFO    : Bus 32	: Pd=0.7, Qd=0.2 -> Pd=0.77, Qd=0.20
% INFO    : Bus 33	: Pd=8.82, Qd=2.51 -> Pd=9.72, Qd=2.51
% INFO    : Bus 34	: Pd=0.0, Qd=0.0 -> Pd=0.00, Qd=0.00
% INFO    : Bus 35	: Pd=33.26, Qd=9.48 -> Pd=36.67, Qd=9.48
% INFO    : Bus 36	: Pd=0.0, Qd=0.0 -> Pd=0.00, Qd=0.00
% INFO    : Bus 37	: Pd=4.89, Qd=1.39 -> Pd=5.39, Qd=1.39
% INFO    : Bus 38	: Pd=40.81, Qd=11.63 -> Pd=44.99, Qd=11.63
% INFO    : Bus 39	: Pd=11.86, Qd=3.38 -> Pd=13.07, Qd=3.38
% INFO    : Bus 40	: Pd=3.28, Qd=0.93 -> Pd=3.62, Qd=0.93
% INFO    : Bus 41	: Pd=61.87, Qd=17.63 -> Pd=68.21, Qd=17.63
% INFO    : Bus 42	: Pd=17.01, Qd=4.85 -> Pd=18.75, Qd=4.85
% INFO    : Bus 43	: Pd=3.09, Qd=0.88 -> Pd=3.41, Qd=0.88
% INFO    : Bus 44	: Pd=6.65, Qd=1.89 -> Pd=7.33, Qd=1.89
% INFO    : Bus 45	: Pd=0.0, Qd=0.0 -> Pd=0.00, Qd=0.00
% INFO    : Bus 46	: Pd=8.68, Qd=2.47 -> Pd=9.57, Qd=2.47
% INFO    : Bus 47	: Pd=2.47, Qd=0.71 -> Pd=2.72, Qd=0.71
% INFO    : Bus 48	: Pd=2.87, Qd=0.82 -> Pd=3.16, Qd=0.82
% INFO    : Bus 49	: Pd=0.0, Qd=0.0 -> Pd=0.00, Qd=0.00
% INFO    : Bus 50	: Pd=0.0, Qd=0.0 -> Pd=0.00, Qd=0.00
% INFO    : Bus 51	: Pd=0.0, Qd=0.0 -> Pd=0.00, Qd=0.00
% INFO    : Bus 52	: Pd=0.0, Qd=0.0 -> Pd=0.00, Qd=0.00
% INFO    : Bus 53	: Pd=0.0, Qd=0.0 -> Pd=0.00, Qd=0.00
% INFO    : Bus 54	: Pd=4.27, Qd=1.22 -> Pd=4.71, Qd=1.22
% INFO    : Bus 55	: Pd=0.0, Qd=0.0 -> Pd=0.00, Qd=0.00
% INFO    : Bus 56	: Pd=1.79, Qd=0.51 -> Pd=1.97, Qd=0.51
% INFO    : Bus 57	: Pd=4.52, Qd=1.29 -> Pd=4.98, Qd=1.29
% INFO    : Bus 58	: Pd=5.79, Qd=1.65 -> Pd=6.38, Qd=1.65
% INFO    : Bus 59	: Pd=7.02, Qd=2.0 -> Pd=7.74, Qd=2.00
% INFO    : Bus 60	: Pd=5.63, Qd=1.6 -> Pd=6.21, Qd=1.60
% INFO    : Bus 61	: Pd=28.14, Qd=8.02 -> Pd=31.02, Qd=8.02
% INFO    : Bus 62	: Pd=34.29, Qd=9.77 -> Pd=37.80, Qd=9.77
% INFO    : Bus 63	: Pd=12.79, Qd=3.64 -> Pd=14.10, Qd=3.64
% INFO    : Bus 64	: Pd=0.0, Qd=0.0 -> Pd=0.00, Qd=0.00
% INFO    : Bus 65	: Pd=0.0, Qd=0.0 -> Pd=0.00, Qd=0.00
% INFO    : Bus 66	: Pd=0.0, Qd=0.0 -> Pd=0.00, Qd=0.00
% INFO    : Bus 67	: Pd=0.0, Qd=0.0 -> Pd=0.00, Qd=0.00
% INFO    : Bus 68	: Pd=0.0, Qd=0.0 -> Pd=0.00, Qd=0.00
% INFO    : Bus 69	: Pd=0.0, Qd=0.0 -> Pd=0.00, Qd=0.00
% INFO    : Bus 70	: Pd=0.0, Qd=0.0 -> Pd=0.00, Qd=0.00
% INFO    : Bus 71	: Pd=0.0, Qd=0.0 -> Pd=0.00, Qd=0.00
% INFO    : Bus 72	: Pd=0.0, Qd=0.0 -> Pd=0.00, Qd=0.00
% INFO    : Bus 73	: Pd=0.0, Qd=0.0 -> Pd=0.00, Qd=0.00
% INFO    : Bus 74	: Pd=29.51, Qd=8.41 -> Pd=32.53, Qd=8.41
% INFO    : Bus 75	: Pd=5.34, Qd=1.52 -> Pd=5.89, Qd=1.52
% INFO    : Bus 76	: Pd=0.0, Qd=0.0 -> Pd=0.00, Qd=0.00
% INFO    : Bus 77	: Pd=0.0, Qd=0.0 -> Pd=0.00, Qd=0.00
% INFO    : Bus 78	: Pd=0.0, Qd=0.0 -> Pd=0.00, Qd=0.00
% INFO    : Bus 79	: Pd=0.0, Qd=0.0 -> Pd=0.00, Qd=0.00
% INFO    : Bus 80	: Pd=2.38, Qd=0.68 -> Pd=2.62, Qd=0.68
% INFO    : Bus 81	: Pd=0.0, Qd=0.0 -> Pd=0.00, Qd=0.00
% INFO    : Bus 82	: Pd=11.96, Qd=3.41 -> Pd=13.19, Qd=3.41
% INFO    : Bus 83	: Pd=4.29, Qd=1.22 -> Pd=4.73, Qd=1.22
% INFO    : Bus 84	: Pd=5.56, Qd=1.59 -> Pd=6.13, Qd=1.59
% INFO    : Bus 85	: Pd=7.74, Qd=2.21 -> Pd=8.53, Qd=2.21
% INFO    : Bus 86	: Pd=12.23, Qd=3.49 -> Pd=13.48, Qd=3.49
% INFO    : Bus 87	: Pd=0.0, Qd=0.0 -> Pd=0.00, Qd=0.00
% INFO    : Bus 88	: Pd=79.66, Qd=22.7 -> Pd=87.82, Qd=22.70
% INFO    : Bus 89	: Pd=86.04, Qd=24.52 -> Pd=94.85, Qd=24.52
% INFO    : Bus 90	: Pd=0.0, Qd=0.0 -> Pd=0.00, Qd=0.00
% INFO    : Bus 91	: Pd=0.0, Qd=0.0 -> Pd=0.00, Qd=0.00
% INFO    : Bus 92	: Pd=0.0, Qd=0.0 -> Pd=0.00, Qd=0.00
% INFO    : Bus 93	: Pd=4.91, Qd=1.4 -> Pd=5.41, Qd=1.40
% INFO    : Bus 94	: Pd=0.0, Qd=0.0 -> Pd=0.00, Qd=0.00
% INFO    : Bus 95	: Pd=4.11, Qd=1.17 -> Pd=4.53, Qd=1.17
% INFO    : Bus 96	: Pd=4.05, Qd=1.15 -> Pd=4.46, Qd=1.15
% INFO    : Bus 97	: Pd=10.87, Qd=3.1 -> Pd=11.98, Qd=3.10
% INFO    : Bus 98	: Pd=0.0, Qd=0.0 -> Pd=0.00, Qd=0.00
% INFO    : Bus 99	: Pd=18.04, Qd=5.14 -> Pd=19.89, Qd=5.14
% INFO    : Bus 100	: Pd=60.35, Qd=17.2 -> Pd=66.53, Qd=17.20
% INFO    : Bus 101	: Pd=0.77, Qd=0.22 -> Pd=0.85, Qd=0.22
% INFO    : Bus 102	: Pd=0.0, Qd=0.0 -> Pd=0.00, Qd=0.00
% INFO    : Bus 103	: Pd=0.0, Qd=0.0 -> Pd=0.00, Qd=0.00
% INFO    : Bus 104	: Pd=0.0, Qd=0.0 -> Pd=0.00, Qd=0.00
% INFO    : Bus 105	: Pd=0.0, Qd=0.0 -> Pd=0.00, Qd=0.00
% INFO    : Bus 106	: Pd=2.82, Qd=0.8 -> Pd=3.11, Qd=0.80
% INFO    : Bus 107	: Pd=71.96, Qd=20.51 -> Pd=79.33, Qd=20.51
% INFO    : Bus 108	: Pd=13.97, Qd=3.98 -> Pd=15.40, Qd=3.98
% INFO    : Bus 109	: Pd=8.26, Qd=2.35 -> Pd=9.11, Qd=2.35
% INFO    : Bus 110	: Pd=16.1, Qd=4.59 -> Pd=17.75, Qd=4.59
% INFO    : Bus 111	: Pd=14.23, Qd=4.05 -> Pd=15.69, Qd=4.05
% INFO    : Bus 112	: Pd=0.0, Qd=0.0 -> Pd=0.00, Qd=0.00
% INFO    : Bus 113	: Pd=0.0, Qd=0.0 -> Pd=0.00, Qd=0.00
% INFO    : Bus 114	: Pd=0.0, Qd=0.0 -> Pd=0.00, Qd=0.00
% INFO    : Bus 115	: Pd=0.0, Qd=0.0 -> Pd=0.00, Qd=0.00
% INFO    : Bus 116	: Pd=0.0, Qd=0.0 -> Pd=0.00, Qd=0.00
% INFO    : Bus 117	: Pd=50.54, Qd=14.4 -> Pd=55.72, Qd=14.40
% INFO    : Bus 118	: Pd=5.84, Qd=1.66 -> Pd=6.44, Qd=1.66
% INFO    : Bus 119	: Pd=26.03, Qd=7.42 -> Pd=28.70, Qd=7.42
% INFO    : Bus 120	: Pd=2.88, Qd=0.82 -> Pd=3.17, Qd=0.82
% INFO    : Bus 121	: Pd=0.0, Qd=0.0 -> Pd=0.00, Qd=0.00
% INFO    : Bus 122	: Pd=21.14, Qd=6.02 -> Pd=23.31, Qd=6.02
% INFO    : Bus 123	: Pd=0.0, Qd=0.0 -> Pd=0.00, Qd=0.00
% INFO    : Bus 124	: Pd=0.0, Qd=0.0 -> Pd=0.00, Qd=0.00
% INFO    : Bus 125	: Pd=0.0, Qd=0.0 -> Pd=0.00, Qd=0.00
% INFO    : Bus 126	: Pd=0.0, Qd=0.0 -> Pd=0.00, Qd=0.00
% INFO    : Bus 127	: Pd=0.0, Qd=0.0 -> Pd=0.00, Qd=0.00
% INFO    : Bus 128	: Pd=0.0, Qd=0.0 -> Pd=0.00, Qd=0.00
% INFO    : Bus 129	: Pd=105.76, Qd=30.14 -> Pd=116.59, Qd=30.14
% INFO    : Bus 130	: Pd=6.02, Qd=1.72 -> Pd=6.64, Qd=1.72
% INFO    : Bus 131	: Pd=44.86, Qd=12.79 -> Pd=49.46, Qd=12.79
% INFO    : Bus 132	: Pd=39.98, Qd=11.39 -> Pd=44.08, Qd=11.39
% INFO    : Bus 133	: Pd=0.0, Qd=0.0 -> Pd=0.00, Qd=0.00
% INFO    : Bus 134	: Pd=0.0, Qd=0.0 -> Pd=0.00, Qd=0.00
% INFO    : Bus 135	: Pd=0.0, Qd=0.0 -> Pd=0.00, Qd=0.00
% INFO    : Bus 136	: Pd=0.0, Qd=0.0 -> Pd=0.00, Qd=0.00
% INFO    : Bus 137	: Pd=1.86, Qd=0.53 -> Pd=2.05, Qd=0.53
% INFO    : Bus 138	: Pd=3.29, Qd=0.94 -> Pd=3.63, Qd=0.94
% INFO    : Bus 139	: Pd=10.14, Qd=2.89 -> Pd=11.18, Qd=2.89
% INFO    : Bus 140	: Pd=12.18, Qd=3.47 -> Pd=13.43, Qd=3.47
% INFO    : Bus 141	: Pd=2.11, Qd=0.6 -> Pd=2.33, Qd=0.60
% INFO    : Bus 142	: Pd=55.26, Qd=15.75 -> Pd=60.92, Qd=15.75
% INFO    : Bus 143	: Pd=43.22, Qd=12.32 -> Pd=47.65, Qd=12.32
% INFO    : Bus 144	: Pd=13.43, Qd=3.83 -> Pd=14.81, Qd=3.83
% INFO    : Bus 145	: Pd=28.32, Qd=8.07 -> Pd=31.22, Qd=8.07
% INFO    : Bus 146	: Pd=0.0, Qd=0.0 -> Pd=0.00, Qd=0.00
% INFO    : Bus 147	: Pd=0.0, Qd=0.0 -> Pd=0.00, Qd=0.00
% INFO    : Bus 148	: Pd=47.49, Qd=13.53 -> Pd=52.35, Qd=13.53
% INFO    : Bus 149	: Pd=0.0, Qd=0.0 -> Pd=0.00, Qd=0.00
% INFO    : Bus 150	: Pd=0.0, Qd=0.0 -> Pd=0.00, Qd=0.00
% INFO    : Bus 151	: Pd=0.0, Qd=0.0 -> Pd=0.00, Qd=0.00
% INFO    : Bus 152	: Pd=0.0, Qd=0.0 -> Pd=0.00, Qd=0.00
% INFO    : Bus 153	: Pd=0.0, Qd=0.0 -> Pd=0.00, Qd=0.00
% INFO    : Bus 154	: Pd=0.0, Qd=0.0 -> Pd=0.00, Qd=0.00
% INFO    : Bus 155	: Pd=0.0, Qd=0.0 -> Pd=0.00, Qd=0.00
% INFO    : Bus 156	: Pd=0.0, Qd=0.0 -> Pd=0.00, Qd=0.00
% INFO    : Bus 157	: Pd=21.88, Qd=6.24 -> Pd=24.12, Qd=6.24
% INFO    : Bus 158	: Pd=14.36, Qd=4.09 -> Pd=15.83, Qd=4.09
% INFO    : Bus 159	: Pd=2.22, Qd=0.63 -> Pd=2.45, Qd=0.63
% INFO    : Bus 160	: Pd=0.0, Qd=0.0 -> Pd=0.00, Qd=0.00
% INFO    : Bus 161	: Pd=0.0, Qd=0.0 -> Pd=0.00, Qd=0.00
% INFO    : Bus 162	: Pd=2.15, Qd=0.61 -> Pd=2.37, Qd=0.61
% INFO    : Bus 163	: Pd=73.93, Qd=21.07 -> Pd=81.50, Qd=21.07
% INFO    : Bus 164	: Pd=0.0, Qd=0.0 -> Pd=0.00, Qd=0.00
% INFO    : Bus 165	: Pd=0.0, Qd=0.0 -> Pd=0.00, Qd=0.00
% INFO    : Bus 166	: Pd=0.0, Qd=0.0 -> Pd=0.00, Qd=0.00
% INFO    : Bus 167	: Pd=0.0, Qd=0.0 -> Pd=0.00, Qd=0.00
% INFO    : Bus 168	: Pd=0.0, Qd=0.0 -> Pd=0.00, Qd=0.00
% INFO    : Bus 169	: Pd=0.0, Qd=0.0 -> Pd=0.00, Qd=0.00
% INFO    : Bus 170	: Pd=0.0, Qd=0.0 -> Pd=0.00, Qd=0.00
% INFO    : Bus 171	: Pd=12.49, Qd=3.56 -> Pd=13.77, Qd=3.56
% INFO    : Bus 172	: Pd=8.68, Qd=2.47 -> Pd=9.57, Qd=2.47
% INFO    : Bus 173	: Pd=14.06, Qd=4.01 -> Pd=15.50, Qd=4.01
% INFO    : Bus 174	: Pd=4.47, Qd=1.27 -> Pd=4.93, Qd=1.27
% INFO    : Bus 175	: Pd=11.8, Qd=3.36 -> Pd=13.01, Qd=3.36
% INFO    : Bus 176	: Pd=30.69, Qd=8.75 -> Pd=33.83, Qd=8.75
% INFO    : Bus 177	: Pd=15.45, Qd=4.4 -> Pd=17.03, Qd=4.40
% INFO    : Bus 178	: Pd=0.0, Qd=0.0 -> Pd=0.00, Qd=0.00
% INFO    : Bus 179	: Pd=38.1, Qd=10.86 -> Pd=42.00, Qd=10.86
% INFO    : Bus 180	: Pd=12.5, Qd=3.56 -> Pd=13.78, Qd=3.56
% INFO    : Bus 181	: Pd=76.87, Qd=21.91 -> Pd=84.74, Qd=21.91
% INFO    : Bus 182	: Pd=0.0, Qd=0.0 -> Pd=0.00, Qd=0.00
% INFO    : Bus 183	: Pd=0.0, Qd=0.0 -> Pd=0.00, Qd=0.00
% INFO    : Bus 184	: Pd=17.26, Qd=4.92 -> Pd=19.03, Qd=4.92
% INFO    : Bus 185	: Pd=17.42, Qd=4.96 -> Pd=19.20, Qd=4.96
% INFO    : Bus 186	: Pd=3.12, Qd=0.89 -> Pd=3.44, Qd=0.89
% INFO    : Bus 187	: Pd=0.0, Qd=0.0 -> Pd=0.00, Qd=0.00
% INFO    : Bus 188	: Pd=0.0, Qd=0.0 -> Pd=0.00, Qd=0.00
% INFO    : Bus 189	: Pd=0.0, Qd=0.0 -> Pd=0.00, Qd=0.00
% INFO    : Bus 190	: Pd=26.41, Qd=7.53 -> Pd=29.12, Qd=7.53
% INFO    : Bus 191	: Pd=11.67, Qd=3.32 -> Pd=12.87, Qd=3.32
% INFO    : Bus 192	: Pd=72.21, Qd=20.58 -> Pd=79.61, Qd=20.58
% INFO    : Bus 193	: Pd=32.61, Qd=9.29 -> Pd=35.95, Qd=9.29
% INFO    : Bus 194	: Pd=60.67, Qd=17.29 -> Pd=66.88, Qd=17.29
% INFO    : Bus 195	: Pd=0.0, Qd=0.0 -> Pd=0.00, Qd=0.00
% INFO    : Bus 196	: Pd=0.0, Qd=0.0 -> Pd=0.00, Qd=0.00
% INFO    : Bus 197	: Pd=0.0, Qd=0.0 -> Pd=0.00, Qd=0.00
% INFO    : Bus 198	: Pd=7.97, Qd=2.27 -> Pd=8.79, Qd=2.27
% INFO    : Bus 199	: Pd=6.69, Qd=1.91 -> Pd=7.38, Qd=1.91
% INFO    : Bus 200	: Pd=14.97, Qd=4.27 -> Pd=16.50, Qd=4.27
% INFO    : 
% INFO    : === Generator Setpoint Replacement Notes ===
% INFO    : Gen at bus 49	: Pg=2060.0, Qg=105.55 -> Pg=12.0, Qg=2.0
% INFO    : Gen at bus 50	: Pg=714.0, Qg=12.798 -> Pg=12.0, Qg=3.0
% INFO    : Gen at bus 51	: Pg=0.0, Qg=-179.106 -> Pg=10.0, Qg=1.0
% INFO    : Gen at bus 52	: Pg=1835.0, Qg=-28.829 -> Pg=10.0, Qg=3.0
% INFO    : Gen at bus 53	: Pg=1400.0, Qg=-16.77 -> Pg=15.0, Qg=2.0
% INFO    : Gen at bus 65	: Pg=615.0, Qg=35.912 -> Pg=108.0, Qg=11.0
% INFO    : Gen at bus 67	: Pg=3830.8, Qg=1014.156 -> Pg=13.0, Qg=-2.0
% INFO    : Gen at bus 68	: Pg=240.0, Qg=5.515 -> Pg=36.0, Qg=-6.0
% INFO    : Gen at bus 69	: Pg=2415.0, Qg=-615.575 -> Pg=35.0, Qg=-4.0
% INFO    : Gen at bus 70	: Pg=495.998, Qg=-201.569 -> Pg=35.0, Qg=-5.0
% INFO    : Gen at bus 71	: Pg=1682.0, Qg=-22.693 -> Pg=34.0, Qg=-3.0
% INFO    : Gen at bus 72	: Pg=2438.0, Qg=-47.638 -> Pg=34.0, Qg=-3.0
% INFO    : Gen at bus 73	: Pg=605.0, Qg=19.863 -> Pg=32.0, Qg=-4.0
% INFO    : Gen at bus 76	: Pg=5491.0, Qg=1281.557 -> Pg=11.0, Qg=3.0
% INFO    : Gen at bus 77	: Pg=0.0, Qg=0.314 -> Pg=4.0, Qg=1.0
% INFO    : Gen at bus 90	: Pg=0.0, Qg=0.002 -> Pg=4.0, Qg=-1.0
% INFO    : Gen at bus 91	: Pg=2140.0, Qg=460.248 -> Pg=15.0, Qg=1.0
% INFO    : Gen at bus 94	: Pg=400.0, Qg=-3.937 -> Pg=31.0, Qg=-14.0
% INFO    : Gen at bus 104	: Pg=507.0, Qg=-6.348 -> Pg=67.0, Qg=16.0
% INFO    : Gen at bus 105	: Pg=0.0, Qg=-6.15 -> Pg=142.0, Qg=27.0
% INFO    : Gen at bus 114	: Pg=172.0, Qg=-0.728 -> Pg=7.0, Qg=2.0
% INFO    : Gen at bus 115	: Pg=706.0, Qg=100.138 -> Pg=124.0, Qg=34.0
% INFO    : Gen at bus 125	: Pg=1253.0, Qg=240.069 -> Pg=71.0, Qg=17.0
% INFO    : Gen at bus 126	: Pg=187.377, Qg=30.725 -> Pg=110.0, Qg=29.0
% INFO    : Gen at bus 127	: Pg=1118.0, Qg=-4.615 -> Pg=127.0, Qg=58.0
% INFO    : Gen at bus 135	: Pg=1563.0, Qg=89.05 -> Pg=228.0, Qg=54.0
% INFO    : Gen at bus 136	: Pg=0.0, Qg=54.854 -> Pg=257.0, Qg=64.0
% INFO    : Gen at bus 147	: Pg=0.0, Qg=254.252 -> Pg=85.0, Qg=24.0
% INFO    : Gen at bus 151	: Pg=0.0, Qg=20.05 -> Pg=9.0, Qg=-3.0
% INFO    : Gen at bus 152	: Pg=0.0, Qg=105.683 -> Pg=64.0, Qg=7.0
% INFO    : Gen at bus 153	: Pg=1273.0, Qg=-38.623 -> Pg=64.0, Qg=4.0
% INFO    : Gen at bus 154	: Pg=3967.0, Qg=69.804 -> Pg=64.0, Qg=11.0
% INFO    : Gen at bus 155	: Pg=0.0, Qg=0.25 -> Pg=64.0, Qg=12.0
% INFO    : Gen at bus 167	: Pg=0.0, Qg=63.236 -> Pg=22.0, Qg=-1.0
% INFO    : Gen at bus 170	: Pg=0.0, Qg=500.0 -> Pg=18.0, Qg=-2.0
% INFO    : Gen at bus 182	: Pg=369.0, Qg=64.538 -> Pg=39.0, Qg=10.0
% INFO    : Gen at bus 183	: Pg=0.0, Qg=15.842 -> Pg=42.0, Qg=29.0
% INFO    : Gen at bus 189	: Pg=121.0, Qg=16.239 -> Pg=448.0, Qg=85.0
% INFO    : 
% INFO    : === Generator Reactive Capacity Atleast Setpoint Value Notes ===
% INFO    : Gen at bus 49	: Qg 2.0, Qmin -0.55, Qmax 2.11 -> Qmin -2.4, Qmax 2.11
% INFO    : Gen at bus 50	: Qg 3.0, Qmin -0.55, Qmax 2.11 -> Qmin -3.6, Qmax 3.6
% INFO    : Gen at bus 51	: Qg 1.0, Qmin -0.55, Qmax 2.11 -> Qmin -1.2, Qmax 2.11
% INFO    : Gen at bus 52	: Qg 3.0, Qmin -0.55, Qmax 2.11 -> Qmin -3.6, Qmax 3.6
% INFO    : Gen at bus 53	: Qg 2.0, Qmin -1.11, Qmax 4.23 -> Qmin -2.4, Qmax 4.23
% INFO    : Gen at bus 67	: Qg -2.0, Qmin -0.57, Qmax 2.19 -> Qmin -2.4, Qmax 2.19
% INFO    : Gen at bus 68	: Qg -6.0, Qmin -3.41, Qmax 13.01 -> Qmin -7.2, Qmax 13.01
% INFO    : Gen at bus 69	: Qg -4.0, Qmin -3.41, Qmax 13.01 -> Qmin -4.8, Qmax 13.01
% INFO    : Gen at bus 70	: Qg -5.0, Qmin -3.41, Qmax 13.01 -> Qmin -6.0, Qmax 13.01
% INFO    : Gen at bus 73	: Qg -4.0, Qmin -3.41, Qmax 13.01 -> Qmin -4.8, Qmax 13.01
% INFO    : Gen at bus 76	: Qg 3.0, Qmin -0.44, Qmax 2.04 -> Qmin -3.6, Qmax 3.6
...